# generated using pymatgen
data_BaFeO3
_symmetry_space_group_name_H-M   P3_2
_cell_length_a   8.77284007
_cell_length_b   8.77284007
_cell_length_c   10.42612604
_cell_angle_alpha   90.00000000
_cell_angle_beta   90.00000000
_cell_angle_gamma   120.00000000
_symmetry_Int_Tables_number   145
_chemical_formula_structural   BaFeO3
_chemical_formula_sum   'ID_0'
_cell_volume   694.91874485
_cell_formula_units_Z   6
loop_
 _symmetry_equiv_pos_site_id
 _symmetry_equiv_pos_as_xyz
  1  'x, y, z'
  2  '-y, x-y, z+2/3'
  3  '-x+y, -x, z+1/3'
loop_
 _atom_site_type_symbol
 _atom_site_label
 _atom_site_symmetry_multiplicity
 _atom_site_fract_x
 _atom_site_fract_y
 _atom_site_fract_z
 _atom_site_occupancy
  Ba  Ba0  3  0.04078066  0.83256676  0.20881846  1.0
  Ba  Ba1  3  0.18957958  0.55324109  0.59988027  1.0
  Fe  Fe2  3  0.05956087  0.37535212  0.13571917  1.0
  Fe  Fe3  3  0.28460949  0.22904051  0.52289919  1.0
  O  O4  3  0.06675572  0.61776985  0.80626688  1.0
  O  O5  3  0.10428458  0.21336424  0.61833502  1.0
  O  O6  3  0.12405611  0.74295601  0.43027250  1.0
  O  O7  3  0.14696677  0.60579693  0.14537125  1.0
  O  O8  3  0.26510531  0.09138630  0.37462560  1.0
  O  O9  3  0.35617475  0.09146855  0.61123327  1.0
# generated using pymatgen
data_BaFeO3
_symmetry_space_group_name_H-M   P2/m
_cell_length_a   4.25310102
_cell_length_b   14.56467574
_cell_length_c   9.58434071
_cell_angle_alpha   90.00000000
_cell_angle_beta   94.46011320
_cell_angle_gamma   90.00000000
_symmetry_Int_Tables_number   10
_chemical_formula_structural   BaFeO3
_chemical_formula_sum   'ID_1'
_cell_volume   591.90444046
_cell_formula_units_Z   6
loop_
 _symmetry_equiv_pos_site_id
 _symmetry_equiv_pos_as_xyz
  1  'x, y, z'
  2  '-x, -y, -z'
  3  '-x, y, -z'
  4  'x, -y, z'
loop_
 _atom_site_type_symbol
 _atom_site_label
 _atom_site_symmetry_multiplicity
 _atom_site_fract_x
 _atom_site_fract_y
 _atom_site_fract_z
 _atom_site_occupancy
  Ba  Ba0  2  0.01751235  0.50000000  0.19032547  1.0
  Ba  Ba1  2  0.50000000  0.29404888  0.00000000  1.0
  Ba  Ba2  2  0.50000000  0.36655511  0.50000000  1.0
  Fe  Fe3  4  0.00209131  0.21177666  0.69236007  1.0
  Fe  Fe4  2  0.31439069  0.00000000  0.37279628  1.0
  O  O5  4  0.04685682  0.30849794  0.18952544  1.0
  O  O6  4  0.36835540  0.12759600  0.30674134  1.0
  O  O7  4  0.38175672  0.15508686  0.78493565  1.0
  O  O8  2  0.00000000  0.25012078  0.50000000  1.0
  O  O9  2  0.44437146  0.50000000  0.65378553  1.0
  O  O10  1  0.00000000  0.00000000  0.50000000  1.0
  O  O11  1  0.50000000  0.50000000  0.00000000  1.0
# generated using pymatgen
data_BaFeO3
_symmetry_space_group_name_H-M   I4mm
_cell_length_a   10.04833479
_cell_length_b   10.04833479
_cell_length_c   13.81894391
_cell_angle_alpha   90.00000000
_cell_angle_beta   90.00000000
_cell_angle_gamma   90.00000000
_symmetry_Int_Tables_number   107
_chemical_formula_structural   BaFeO3
_chemical_formula_sum   'ID_2'
_cell_volume   1395.28539018
_cell_formula_units_Z   12
loop_
 _symmetry_equiv_pos_site_id
 _symmetry_equiv_pos_as_xyz
  1  'x, y, z'
  2  '-y, x, z'
  3  '-x, -y, z'
  4  'y, -x, z'
  5  '-x, y, z'
  6  'y, x, z'
  7  'x, -y, z'
  8  '-y, -x, z'
  9  'x+1/2, y+1/2, z+1/2'
  10  '-y+1/2, x+1/2, z+1/2'
  11  '-x+1/2, -y+1/2, z+1/2'
  12  'y+1/2, -x+1/2, z+1/2'
  13  '-x+1/2, y+1/2, z+1/2'
  14  'y+1/2, x+1/2, z+1/2'
  15  'x+1/2, -y+1/2, z+1/2'
  16  '-y+1/2, -x+1/2, z+1/2'
loop_
 _atom_site_type_symbol
 _atom_site_label
 _atom_site_symmetry_multiplicity
 _atom_site_fract_x
 _atom_site_fract_y
 _atom_site_fract_z
 _atom_site_occupancy
  Ba  Ba0  8  0.22688670  0.22688670  0.00222873  1.0
  Ba  Ba1  4  0.00000000  0.50000000  0.28582657  1.0
  Fe  Fe2  8  0.00000000  0.19719267  0.27747066  1.0
  Fe  Fe3  2  0.00000000  0.00000000  0.65195077  1.0
  Fe  Fe4  2  0.00000000  0.00000000  0.91339950  1.0
  O  O5  16  0.07553819  0.31386620  0.16643034  1.0
  O  O6  8  0.00000000  0.18734636  0.93342192  1.0
  O  O7  8  0.15977107  0.15977107  0.34541728  1.0
  O  O8  2  0.00000000  0.00000000  0.52942928  1.0
  O  O9  2  0.00000000  0.00000000  0.77619804  1.0
# generated using pymatgen
data_BaFeO3
_symmetry_space_group_name_H-M   C2
_cell_length_a   14.06494128
_cell_length_b   10.29601591
_cell_length_c   10.16514771
_cell_angle_alpha   90.00000000
_cell_angle_beta   108.56608830
_cell_angle_gamma   90.00000000
_symmetry_Int_Tables_number   5
_chemical_formula_structural   BaFeO3
_chemical_formula_sum   'ID_3'
_cell_volume   1395.43455152
_cell_formula_units_Z   12
loop_
 _symmetry_equiv_pos_site_id
 _symmetry_equiv_pos_as_xyz
  1  'x, y, z'
  2  '-x, y, -z'
  3  'x+1/2, y+1/2, z'
  4  '-x+1/2, y+1/2, -z'
loop_
 _atom_site_type_symbol
 _atom_site_label
 _atom_site_symmetry_multiplicity
 _atom_site_fract_x
 _atom_site_fract_y
 _atom_site_fract_z
 _atom_site_occupancy
  Ba  Ba0  4  0.13798783  0.15249578  0.25783503  1.0
  Ba  Ba1  4  0.15592866  0.35203327  0.82464351  1.0
  Ba  Ba2  2  0.00000000  0.71020722  0.00000000  1.0
  Ba  Ba3  2  0.00000000  0.95611608  0.50000000  1.0
  Fe  Fe4  4  0.11401195  0.60860416  0.49699340  1.0
  Fe  Fe5  4  0.19408758  0.82932823  0.40199225  1.0
  Fe  Fe6  2  0.00000000  0.30133371  0.50000000  1.0
  Fe  Fe7  2  0.00000000  0.40040476  0.00000000  1.0
  O  O8  4  0.02039643  0.20565603  0.65706718  1.0
  O  O9  4  0.04853647  0.51213948  0.89834784  1.0
  O  O10  4  0.08466530  0.92215957  0.30698271  1.0
  O  O11  4  0.10753788  0.29401270  0.04054385  1.0
  O  O12  4  0.15441517  0.66178739  0.33360824  1.0
  O  O13  4  0.20091256  0.76407835  0.58079712  1.0
  O  O14  4  0.20577731  0.45680481  0.60287653  1.0
  O  O15  2  0.00000000  0.08409928  0.00000000  1.0
  O  O16  2  0.00000000  0.47982030  0.50000000  1.0
  O  O17  2  0.00000000  0.71220522  0.50000000  1.0
  O  O18  2  0.00000000  0.95866427  0.00000000  1.0
# generated using pymatgen
data_BaFeO3
_symmetry_space_group_name_H-M   P-42_1m
_cell_length_a   9.85149329
_cell_length_b   9.85149329
_cell_length_c   13.29541958
_cell_angle_alpha   90.00000000
_cell_angle_beta   90.00000000
_cell_angle_gamma   90.00000000
_symmetry_Int_Tables_number   113
_chemical_formula_structural   BaFeO3
_chemical_formula_sum   'ID_4'
_cell_volume   1290.34599782
_cell_formula_units_Z   6
loop_
 _symmetry_equiv_pos_site_id
 _symmetry_equiv_pos_as_xyz
  1  'x, y, z'
  2  'y, -x, -z'
  3  '-x, -y, z'
  4  '-y, x, -z'
  5  'x+1/2, -y+1/2, -z'
  6  'y+1/2, x+1/2, z'
  7  '-x+1/2, y+1/2, -z'
  8  '-y+1/2, -x+1/2, z'
loop_
 _atom_site_type_symbol
 _atom_site_label
 _atom_site_symmetry_multiplicity
 _atom_site_fract_x
 _atom_site_fract_y
 _atom_site_fract_z
 _atom_site_occupancy
  Ba  Ba0  4  0.17901767  0.32098233  0.73758168  1.0
  Ba  Ba1  2  0.00000000  0.00000000  0.00000000  1.0
  Fe  Fe2  4  0.00000000  0.00000000  0.24243068  1.0
  Fe  Fe3  2  0.00000000  0.50000000  0.39244147  1.0
  O  O4  8  0.08932698  0.12053890  0.83783226  1.0
  O  O5  4  0.00000000  0.00000000  0.37439073  1.0
  O  O6  4  0.05071753  0.55071753  0.75597430  1.0
  O  O7  2  0.00000000  0.00000000  0.50000000  1.0
# generated using pymatgen
data_BaFeO3
_symmetry_space_group_name_H-M   Im-3m
_cell_length_a   9.99751270
_cell_length_b   9.99751270
_cell_length_c   9.99751270
_cell_angle_alpha   90.00000000
_cell_angle_beta   90.00000000
_cell_angle_gamma   90.00000000
_symmetry_Int_Tables_number   229
_chemical_formula_structural   BaFeO3
_chemical_formula_sum   'ID_5'
_cell_volume   999.25399448
_cell_formula_units_Z   12
loop_
 _symmetry_equiv_pos_site_id
 _symmetry_equiv_pos_as_xyz
  1  'x, y, z'
  2  '-x, -y, -z'
  3  '-y, x, z'
  4  'y, -x, -z'
  5  '-x, -y, z'
  6  'x, y, -z'
  7  'y, -x, z'
  8  '-y, x, -z'
  9  'x, -y, -z'
  10  '-x, y, z'
  11  '-y, -x, -z'
  12  'y, x, z'
  13  '-x, y, -z'
  14  'x, -y, z'
  15  'y, x, -z'
  16  '-y, -x, z'
  17  'z, x, y'
  18  '-z, -x, -y'
  19  'z, -y, x'
  20  '-z, y, -x'
  21  'z, -x, -y'
  22  '-z, x, y'
  23  'z, y, -x'
  24  '-z, -y, x'
  25  '-z, x, -y'
  26  'z, -x, y'
  27  '-z, -y, -x'
  28  'z, y, x'
  29  '-z, -x, y'
  30  'z, x, -y'
  31  '-z, y, x'
  32  'z, -y, -x'
  33  'y, z, x'
  34  '-y, -z, -x'
  35  'x, z, -y'
  36  '-x, -z, y'
  37  '-y, z, -x'
  38  'y, -z, x'
  39  '-x, z, y'
  40  'x, -z, -y'
  41  '-y, -z, x'
  42  'y, z, -x'
  43  '-x, -z, -y'
  44  'x, z, y'
  45  'y, -z, -x'
  46  '-y, z, x'
  47  'x, -z, y'
  48  '-x, z, -y'
  49  'x+1/2, y+1/2, z+1/2'
  50  '-x+1/2, -y+1/2, -z+1/2'
  51  '-y+1/2, x+1/2, z+1/2'
  52  'y+1/2, -x+1/2, -z+1/2'
  53  '-x+1/2, -y+1/2, z+1/2'
  54  'x+1/2, y+1/2, -z+1/2'
  55  'y+1/2, -x+1/2, z+1/2'
  56  '-y+1/2, x+1/2, -z+1/2'
  57  'x+1/2, -y+1/2, -z+1/2'
  58  '-x+1/2, y+1/2, z+1/2'
  59  '-y+1/2, -x+1/2, -z+1/2'
  60  'y+1/2, x+1/2, z+1/2'
  61  '-x+1/2, y+1/2, -z+1/2'
  62  'x+1/2, -y+1/2, z+1/2'
  63  'y+1/2, x+1/2, -z+1/2'
  64  '-y+1/2, -x+1/2, z+1/2'
  65  'z+1/2, x+1/2, y+1/2'
  66  '-z+1/2, -x+1/2, -y+1/2'
  67  'z+1/2, -y+1/2, x+1/2'
  68  '-z+1/2, y+1/2, -x+1/2'
  69  'z+1/2, -x+1/2, -y+1/2'
  70  '-z+1/2, x+1/2, y+1/2'
  71  'z+1/2, y+1/2, -x+1/2'
  72  '-z+1/2, -y+1/2, x+1/2'
  73  '-z+1/2, x+1/2, -y+1/2'
  74  'z+1/2, -x+1/2, y+1/2'
  75  '-z+1/2, -y+1/2, -x+1/2'
  76  'z+1/2, y+1/2, x+1/2'
  77  '-z+1/2, -x+1/2, y+1/2'
  78  'z+1/2, x+1/2, -y+1/2'
  79  '-z+1/2, y+1/2, x+1/2'
  80  'z+1/2, -y+1/2, -x+1/2'
  81  'y+1/2, z+1/2, x+1/2'
  82  '-y+1/2, -z+1/2, -x+1/2'
  83  'x+1/2, z+1/2, -y+1/2'
  84  '-x+1/2, -z+1/2, y+1/2'
  85  '-y+1/2, z+1/2, -x+1/2'
  86  'y+1/2, -z+1/2, x+1/2'
  87  '-x+1/2, z+1/2, y+1/2'
  88  'x+1/2, -z+1/2, -y+1/2'
  89  '-y+1/2, -z+1/2, x+1/2'
  90  'y+1/2, z+1/2, -x+1/2'
  91  '-x+1/2, -z+1/2, -y+1/2'
  92  'x+1/2, z+1/2, y+1/2'
  93  'y+1/2, -z+1/2, -x+1/2'
  94  '-y+1/2, z+1/2, x+1/2'
  95  'x+1/2, -z+1/2, y+1/2'
  96  '-x+1/2, z+1/2, -y+1/2'
loop_
 _atom_site_type_symbol
 _atom_site_label
 _atom_site_symmetry_multiplicity
 _atom_site_fract_x
 _atom_site_fract_y
 _atom_site_fract_z
 _atom_site_occupancy
  Ba  Ba0  12  0.00000000  0.25000000  0.50000000  1.0
  Fe  Fe1  12  0.00000000  0.00000000  0.21655073  1.0
  O  O2  24  0.00000000  0.19661465  0.19661465  1.0
  O  O3  12  0.00000000  0.00000000  0.39694405  1.0
# generated using pymatgen
data_BaFeO3
_symmetry_space_group_name_H-M   I-4m2
_cell_length_a   11.78426991
_cell_length_b   11.78426991
_cell_length_c   12.34161048
_cell_angle_alpha   90.00000000
_cell_angle_beta   90.00000000
_cell_angle_gamma   90.00000000
_symmetry_Int_Tables_number   119
_chemical_formula_structural   BaFeO3
_chemical_formula_sum   'ID_6'
_cell_volume   1713.86732094
_cell_formula_units_Z   12
loop_
 _symmetry_equiv_pos_site_id
 _symmetry_equiv_pos_as_xyz
  1  'x, y, z'
  2  'y, -x, -z'
  3  '-x, -y, z'
  4  '-y, x, -z'
  5  '-x, y, z'
  6  '-y, -x, -z'
  7  'x, -y, z'
  8  'y, x, -z'
  9  'x+1/2, y+1/2, z+1/2'
  10  'y+1/2, -x+1/2, -z+1/2'
  11  '-x+1/2, -y+1/2, z+1/2'
  12  '-y+1/2, x+1/2, -z+1/2'
  13  '-x+1/2, y+1/2, z+1/2'
  14  '-y+1/2, -x+1/2, -z+1/2'
  15  'x+1/2, -y+1/2, z+1/2'
  16  'y+1/2, x+1/2, -z+1/2'
loop_
 _atom_site_type_symbol
 _atom_site_label
 _atom_site_symmetry_multiplicity
 _atom_site_fract_x
 _atom_site_fract_y
 _atom_site_fract_z
 _atom_site_occupancy
  Ba  Ba0  8  0.00000000  0.20658098  0.38028693  1.0
  Ba  Ba1  4  0.00000000  0.50000000  0.55831433  1.0
  Fe  Fe2  8  0.00000000  0.11689588  0.81561111  1.0
  Fe  Fe3  2  0.00000000  0.00000000  0.00000000  1.0
  Fe  Fe4  2  0.00000000  0.50000000  0.25000000  1.0
  O  O5  16  0.10566506  0.37021157  0.09768060  1.0
  O  O6  8  0.00000000  0.11473907  0.19846025  1.0
  O  O7  8  0.00000000  0.35131825  0.16179954  1.0
  O  O8  2  0.00000000  0.00000000  0.50000000  1.0
  O  O9  2  0.00000000  0.50000000  0.75000000  1.0
# generated using pymatgen
data_BaFeO3
_symmetry_space_group_name_H-M   Pmmn
_cell_length_a   11.47516105
_cell_length_b   13.91736825
_cell_length_c   4.22714258
_cell_angle_alpha   90.00000000
_cell_angle_beta   90.00000000
_cell_angle_gamma   90.00000000
_symmetry_Int_Tables_number   59
_chemical_formula_structural   BaFeO3
_chemical_formula_sum   'ID_7'
_cell_volume   675.09175637
_cell_formula_units_Z   6
loop_
 _symmetry_equiv_pos_site_id
 _symmetry_equiv_pos_as_xyz
  1  'x, y, z'
  2  '-x, -y, z'
  3  'x+1/2, -y+1/2, -z'
  4  '-x+1/2, y+1/2, -z'
  5  '-x+1/2, -y+1/2, -z'
  6  'x+1/2, y+1/2, -z'
  7  '-x, y, z'
  8  'x, -y, z'
loop_
 _atom_site_type_symbol
 _atom_site_label
 _atom_site_symmetry_multiplicity
 _atom_site_fract_x
 _atom_site_fract_y
 _atom_site_fract_z
 _atom_site_occupancy
  Ba  Ba0  4  0.00000000  0.24158911  0.00044025  1.0
  Ba  Ba1  2  0.00000000  0.00000000  0.49968353  1.0
  Fe  Fe2  4  0.25000000  0.25000000  0.50000000  1.0
  Fe  Fe3  2  0.00000000  0.50000000  0.50492785  1.0
  O  O4  8  0.13099903  0.16800641  0.50010596  1.0
  O  O5  4  0.00000000  0.37410711  0.50110047  1.0
  O  O6  4  0.25000000  0.25000000  0.00000000  1.0
  O  O7  2  0.00000000  0.00000000  0.99965905  1.0
# generated using pymatgen
data_BaFeO3
_symmetry_space_group_name_H-M   Iba2
_cell_length_a   11.37518673
_cell_length_b   13.45427479
_cell_length_c   7.74055385
_cell_angle_alpha   90.00000000
_cell_angle_beta   90.00000000
_cell_angle_gamma   90.00000000
_symmetry_Int_Tables_number   45
_chemical_formula_structural   BaFeO3
_chemical_formula_sum   'ID_8'
_cell_volume   1184.65219769
_cell_formula_units_Z   12
loop_
 _symmetry_equiv_pos_site_id
 _symmetry_equiv_pos_as_xyz
  1  'x, y, z'
  2  '-x, -y, z'
  3  '-x, y, z+1/2'
  4  'x, -y, z+1/2'
  5  'x+1/2, y+1/2, z+1/2'
  6  '-x+1/2, -y+1/2, z+1/2'
  7  '-x+1/2, y+1/2, z'
  8  'x+1/2, -y+1/2, z'
loop_
 _atom_site_type_symbol
 _atom_site_label
 _atom_site_symmetry_multiplicity
 _atom_site_fract_x
 _atom_site_fract_y
 _atom_site_fract_z
 _atom_site_occupancy
  Ba  Ba0  8  0.17855480  0.36307358  0.71498321  1.0
  Ba  Ba1  4  0.00000000  0.00000000  0.13795839  1.0
  Fe  Fe2  8  0.01995542  0.21445807  0.40561087  1.0
  Fe  Fe3  4  0.00000000  0.50000000  0.44897647  1.0
  O  O4  8  0.02911791  0.34862106  0.44350744  1.0
  O  O5  8  0.11850256  0.10826940  0.37970987  1.0
  O  O6  8  0.12626593  0.16965727  0.78019576  1.0
  O  O7  8  0.13673189  0.16000250  0.97529777  1.0
  O  O8  4  0.00000000  0.50000000  0.19828746  1.0
# generated using pymatgen
data_BaFeO3
_symmetry_space_group_name_H-M   P6_122
_cell_length_a   10.00701176
_cell_length_b   10.00701176
_cell_length_c   8.60343812
_cell_angle_alpha   90.00000000
_cell_angle_beta   90.00000000
_cell_angle_gamma   120.00000000
_symmetry_Int_Tables_number   178
_chemical_formula_structural   BaFeO3
_chemical_formula_sum   'ID_9'
_cell_volume   746.12482772
_cell_formula_units_Z   6
loop_
 _symmetry_equiv_pos_site_id
 _symmetry_equiv_pos_as_xyz
  1  'x, y, z'
  2  'x-y, x, z+1/6'
  3  '-y, x-y, z+1/3'
  4  '-x, -y, z+1/2'
  5  '-x+y, -x, z+2/3'
  6  'y, -x+y, z+5/6'
  7  '-y, -x, -z+5/6'
  8  '-x, -x+y, -z+2/3'
  9  '-x+y, y, -z+1/2'
  10  'y, x, -z+1/3'
  11  'x, x-y, -z+1/6'
  12  'x-y, -y, -z'
loop_
 _atom_site_type_symbol
 _atom_site_label
 _atom_site_symmetry_multiplicity
 _atom_site_fract_x
 _atom_site_fract_y
 _atom_site_fract_z
 _atom_site_occupancy
  Ba  Ba0  6  0.00000000  0.46631363  0.33333333  1.0
  Fe  Fe1  6  0.00000000  0.21991190  0.83333333  1.0
  O  O2  6  0.17794359  0.58897180  0.08333333  1.0
  O  O3  6  0.18456449  0.36912898  0.75000000  1.0
  O  O4  6  0.28357617  0.56715233  0.25000000  1.0
