# generated using pymatgen
data_BaFeO3
_symmetry_space_group_name_H-M   P6_3/m
_cell_length_a   9.24366504
_cell_length_b   9.24366504
_cell_length_c   7.70476796
_cell_angle_alpha   90.00000000
_cell_angle_beta   90.00000000
_cell_angle_gamma   120.00000000
_symmetry_Int_Tables_number   176
_chemical_formula_structural   BaFeO3
_chemical_formula_sum   'ID_0'
_cell_volume   570.13617205
_cell_formula_units_Z   6
loop_
 _symmetry_equiv_pos_site_id
 _symmetry_equiv_pos_as_xyz
  1  'x, y, z'
  2  '-x, -y, -z'
  3  'x-y, x, z+1/2'
  4  '-x+y, -x, -z+1/2'
  5  '-y, x-y, z'
  6  'y, -x+y, -z'
  7  '-x, -y, z+1/2'
  8  'x, y, -z+1/2'
  9  '-x+y, -x, z'
  10  'x-y, x, -z'
  11  'y, -x+y, z+1/2'
  12  '-y, x-y, -z+1/2'
loop_
 _atom_site_type_symbol
 _atom_site_label
 _atom_site_symmetry_multiplicity
 _atom_site_fract_x
 _atom_site_fract_y
 _atom_site_fract_z
 _atom_site_occupancy
  Ba  Ba0  6  0.00000000  0.50000000  0.00000000  1.0
  Fe  Fe1  6  0.08902132  0.90938838  0.25000000  1.0
  O  O2  12  0.20505685  0.41014788  0.15159104  1.0
  O  O3  4  0.33333333  0.66666667  0.65005241  1.0
  O  O4  2  0.00000000  0.00000000  0.00000000  1.0
# generated using pymatgen
data_BaFeO3
_symmetry_space_group_name_H-M   P4_2nm
_cell_length_a   8.46295064
_cell_length_b   8.46295064
_cell_length_c   9.05047212
_cell_angle_alpha   90.00000000
_cell_angle_beta   90.00000000
_cell_angle_gamma   90.00000000
_symmetry_Int_Tables_number   102
_chemical_formula_structural   BaFeO3
_chemical_formula_sum   'ID_1'
_cell_volume   648.20869200
_cell_formula_units_Z   6
loop_
 _symmetry_equiv_pos_site_id
 _symmetry_equiv_pos_as_xyz
  1  'x, y, z'
  2  '-y+1/2, x+1/2, z+1/2'
  3  '-x, -y, z'
  4  'y+1/2, -x+1/2, z+1/2'
  5  '-x+1/2, y+1/2, z+1/2'
  6  'y, x, z'
  7  'x+1/2, -y+1/2, z+1/2'
  8  '-y, -x, z'
loop_
 _atom_site_type_symbol
 _atom_site_label
 _atom_site_symmetry_multiplicity
 _atom_site_fract_x
 _atom_site_fract_y
 _atom_site_fract_z
 _atom_site_occupancy
  Ba  Ba0  4  0.23062506  0.76937494  0.75596127  1.0
  Ba  Ba1  2  0.00000000  0.00000000  0.02731952  1.0
  Fe  Fe2  4  0.23291285  0.23291285  0.63081743  1.0
  Fe  Fe3  2  0.00000000  0.00000000  0.52236851  1.0
  O  O4  8  0.02779139  0.71150732  0.16164082  1.0
  O  O5  8  0.07628987  0.68334826  0.00201225  1.0
  O  O6  2  0.00000000  0.00000000  0.73113991  1.0
# generated using pymatgen
data_BaFeO3
_symmetry_space_group_name_H-M   P-62m
_cell_length_a   11.93479652
_cell_length_b   11.93479652
_cell_length_c   5.64808959
_cell_angle_alpha   90.00000000
_cell_angle_beta   90.00000000
_cell_angle_gamma   120.00000000
_symmetry_Int_Tables_number   189
_chemical_formula_structural   BaFeO3
_chemical_formula_sum   'ID_2'
_cell_volume   696.72636784
_cell_formula_units_Z   6
loop_
 _symmetry_equiv_pos_site_id
 _symmetry_equiv_pos_as_xyz
  1  'x, y, z'
  2  '-x+y, -x, -z'
  3  '-y, x-y, z'
  4  'x, y, -z'
  5  '-x+y, -x, z'
  6  '-y, x-y, -z'
  7  'y, x, z'
  8  '-x, -x+y, -z'
  9  'x-y, -y, z'
  10  'y, x, -z'
  11  '-x, -x+y, z'
  12  'x-y, -y, -z'
loop_
 _atom_site_type_symbol
 _atom_site_label
 _atom_site_symmetry_multiplicity
 _atom_site_fract_x
 _atom_site_fract_y
 _atom_site_fract_z
 _atom_site_occupancy
  Ba  Ba0  3  0.00000000  0.51022910  0.00000000  1.0
  Ba  Ba1  3  0.00000000  0.79322202  0.00000000  1.0
  Fe  Fe2  6  0.22177789  0.70502980  0.50000000  1.0
  O  O3  12  0.14199795  0.72219452  0.25703464  1.0
  O  O4  4  0.33333333  0.66666667  0.29327164  1.0
  O  O5  1  0.00000000  0.00000000  0.00000000  1.0
  O  O6  1  0.00000000  0.00000000  0.50000000  1.0
# generated using pymatgen
data_BaFeO3
_symmetry_space_group_name_H-M   Aem2
_cell_length_a   13.34415771
_cell_length_b   9.45040975
_cell_length_c   12.61335357
_cell_angle_alpha   90.00000000
_cell_angle_beta   90.00000000
_cell_angle_gamma   90.00000000
_symmetry_Int_Tables_number   39
_chemical_formula_structural   BaFeO3
_chemical_formula_sum   'ID_3'
_cell_volume   1590.64174174
_cell_formula_units_Z   12
loop_
 _symmetry_equiv_pos_site_id
 _symmetry_equiv_pos_as_xyz
  1  'x, y, z'
  2  '-x, -y, z'
  3  '-x, y+1/2, z'
  4  'x, -y+1/2, z'
  5  'x, y+1/2, z+1/2'
  6  '-x, -y+1/2, z+1/2'
  7  '-x, y, z+1/2'
  8  'x, -y, z+1/2'
loop_
 _atom_site_type_symbol
 _atom_site_label
 _atom_site_symmetry_multiplicity
 _atom_site_fract_x
 _atom_site_fract_y
 _atom_site_fract_z
 _atom_site_occupancy
  Ba  Ba0  4  0.24873366  0.25000000  0.01652931  1.0
  Ba  Ba1  4  0.43805280  0.25000000  0.68749492  1.0
  Ba  Ba2  4  0.50000000  0.00000000  0.42452447  1.0
  Fe  Fe3  8  0.21697763  0.10598132  0.77002100  1.0
  Fe  Fe4  4  0.00000000  0.00000000  0.15273934  1.0
  O  O5  8  0.13106611  0.05008770  0.09520917  1.0
  O  O6  8  0.13675395  0.05470298  0.21573136  1.0
  O  O7  8  0.33158186  0.07996172  0.85176582  1.0
  O  O8  4  0.14464529  0.25000000  0.84863597  1.0
  O  O9  4  0.25199846  0.25000000  0.66825495  1.0
  O  O10  4  0.50000000  0.00000000  0.11532452  1.0
# generated using pymatgen
data_BaFeO3
_symmetry_space_group_name_H-M   P4_2mc
_cell_length_a   8.16736141
_cell_length_b   8.16736141
_cell_length_c   7.35381668
_cell_angle_alpha   90.00000000
_cell_angle_beta   90.00000000
_cell_angle_gamma   90.00000000
_symmetry_Int_Tables_number   105
_chemical_formula_structural   BaFeO3
_chemical_formula_sum   'ID_4'
_cell_volume   490.54216938
_cell_formula_units_Z   6
loop_
 _symmetry_equiv_pos_site_id
 _symmetry_equiv_pos_as_xyz
  1  'x, y, z'
  2  '-y, x, z+1/2'
  3  '-x, -y, z'
  4  'y, -x, z+1/2'
  5  '-x, y, z'
  6  'y, x, z+1/2'
  7  'x, -y, z'
  8  '-y, -x, z+1/2'
loop_
 _atom_site_type_symbol
 _atom_site_label
 _atom_site_symmetry_multiplicity
 _atom_site_fract_x
 _atom_site_fract_y
 _atom_site_fract_z
 _atom_site_occupancy
  Ba  Ba0  4  0.20020417  0.50000000  0.65078510  1.0
  Ba  Ba1  2  0.00000000  0.50000000  0.18027506  1.0
  Fe  Fe2  4  0.00000000  0.14253963  0.88629072  1.0
  Fe  Fe3  2  0.50000000  0.50000000  0.42039989  1.0
  O  O4  8  0.16904952  0.24782667  0.37317722  1.0
  O  O5  8  0.29542195  0.36868293  0.95664143  1.0
  O  O6  2  0.00000000  0.00000000  0.13358348  1.0
# generated using pymatgen
data_BaFeO3
_symmetry_space_group_name_H-M   P-4n2
_cell_length_a   6.04365126
_cell_length_b   6.04365126
_cell_length_c   22.79449558
_cell_angle_alpha   90.00000000
_cell_angle_beta   90.00000000
_cell_angle_gamma   90.00000000
_symmetry_Int_Tables_number   118
_chemical_formula_structural   BaFeO3
_chemical_formula_sum   'ID_5'
_cell_volume   832.58537437
_cell_formula_units_Z   6
loop_
 _symmetry_equiv_pos_site_id
 _symmetry_equiv_pos_as_xyz
  1  'x, y, z'
  2  'y, -x, -z'
  3  '-x, -y, z'
  4  '-y, x, -z'
  5  '-x+1/2, y+1/2, z+1/2'
  6  '-y+1/2, -x+1/2, -z+1/2'
  7  'x+1/2, -y+1/2, z+1/2'
  8  'y+1/2, x+1/2, -z+1/2'
loop_
 _atom_site_type_symbol
 _atom_site_label
 _atom_site_symmetry_multiplicity
 _atom_site_fract_x
 _atom_site_fract_y
 _atom_site_fract_z
 _atom_site_occupancy
  Ba  Ba0  4  0.00000000  0.00000000  0.35384556  1.0
  Ba  Ba1  2  0.00000000  0.50000000  0.25000000  1.0
  Fe  Fe2  4  0.00000000  0.50000000  0.09504951  1.0
  Fe  Fe3  2  0.00000000  0.00000000  0.50000000  1.0
  O  O4  8  0.05327611  0.76356122  0.44735186  1.0
  O  O5  8  0.11309960  0.31738260  0.15119697  1.0
  O  O6  2  0.00000000  0.50000000  0.75000000  1.0
# generated using pymatgen
data_BaFeO3
_symmetry_space_group_name_H-M   P3_212
_cell_length_a   5.76740218
_cell_length_b   5.76740218
_cell_length_c   26.25494293
_cell_angle_alpha   90.00000000
_cell_angle_beta   90.00000000
_cell_angle_gamma   120.00000000
_symmetry_Int_Tables_number   153
_chemical_formula_structural   BaFeO3
_chemical_formula_sum   'ID_6'
_cell_volume   756.31407835
_cell_formula_units_Z   6
loop_
 _symmetry_equiv_pos_site_id
 _symmetry_equiv_pos_as_xyz
  1  'x, y, z'
  2  '-y, x-y, z+2/3'
  3  '-x+y, -x, z+1/3'
  4  '-y, -x, -z+1/3'
  5  '-x+y, y, -z+2/3'
  6  'x, x-y, -z'
loop_
 _atom_site_type_symbol
 _atom_site_label
 _atom_site_symmetry_multiplicity
 _atom_site_fract_x
 _atom_site_fract_y
 _atom_site_fract_z
 _atom_site_occupancy
  Ba  Ba0  6  0.52475229  0.11083609  0.08174123  1.0
  Fe  Fe1  6  0.09007111  0.28049795  0.50157553  1.0
  O  O2  6  0.09282746  0.03930949  0.55216221  1.0
  O  O3  6  0.17381764  0.56620434  0.84833366  1.0
  O  O4  3  0.56538297  0.28269148  0.00000000  1.0
  O  O5  3  0.56880184  0.13760368  0.83333333  1.0
# generated using pymatgen
data_BaFeO3
_symmetry_space_group_name_H-M   P-4b2
_cell_length_a   6.79853195
_cell_length_b   6.79853195
_cell_length_c   19.63250183
_cell_angle_alpha   90.00000000
_cell_angle_beta   90.00000000
_cell_angle_gamma   90.00000000
_symmetry_Int_Tables_number   117
_chemical_formula_structural   BaFeO3
_chemical_formula_sum   'ID_7'
_cell_volume   907.41495454
_cell_formula_units_Z   6
loop_
 _symmetry_equiv_pos_site_id
 _symmetry_equiv_pos_as_xyz
  1  'x, y, z'
  2  'y, -x, -z'
  3  '-x, -y, z'
  4  '-y, x, -z'
  5  '-x+1/2, y+1/2, z'
  6  '-y+1/2, -x+1/2, -z'
  7  'x+1/2, -y+1/2, z'
  8  'y+1/2, x+1/2, -z'
loop_
 _atom_site_type_symbol
 _atom_site_label
 _atom_site_symmetry_multiplicity
 _atom_site_fract_x
 _atom_site_fract_y
 _atom_site_fract_z
 _atom_site_occupancy
  Ba  Ba0  4  0.00000000  0.50000000  0.32216907  1.0
  Ba  Ba1  2  0.00000000  0.50000000  0.00000000  1.0
  Fe  Fe2  4  0.00000000  0.00000000  0.40248644  1.0
  Fe  Fe3  2  0.00000000  0.50000000  0.50000000  1.0
  O  O4  8  0.02778203  0.30434754  0.43890457  1.0
  O  O5  8  0.11187588  0.14693590  0.66193915  1.0
  O  O6  2  0.00000000  0.00000000  0.50000000  1.0
# generated using pymatgen
data_BaFeO3
_symmetry_space_group_name_H-M   P6_3/mmc
_cell_length_a   7.16159422
_cell_length_b   7.16159422
_cell_length_c   30.58612309
_cell_angle_alpha   90.00000000
_cell_angle_beta   90.00000000
_cell_angle_gamma   120.00000000
_symmetry_Int_Tables_number   194
_chemical_formula_structural   BaFeO3
_chemical_formula_sum   'ID_8'
_cell_volume   1358.54642262
_cell_formula_units_Z   6
loop_
 _symmetry_equiv_pos_site_id
 _symmetry_equiv_pos_as_xyz
  1  'x, y, z'
  2  '-x, -y, -z'
  3  'x-y, x, z+1/2'
  4  '-x+y, -x, -z+1/2'
  5  '-y, x-y, z'
  6  'y, -x+y, -z'
  7  '-x, -y, z+1/2'
  8  'x, y, -z+1/2'
  9  '-x+y, -x, z'
  10  'x-y, x, -z'
  11  'y, -x+y, z+1/2'
  12  '-y, x-y, -z+1/2'
  13  '-y, -x, -z+1/2'
  14  'y, x, z+1/2'
  15  '-x, -x+y, -z'
  16  'x, x-y, z'
  17  '-x+y, y, -z+1/2'
  18  'x-y, -y, z+1/2'
  19  'y, x, -z'
  20  '-y, -x, z'
  21  'x, x-y, -z+1/2'
  22  '-x, -x+y, z+1/2'
  23  'x-y, -y, -z'
  24  '-x+y, y, z'
loop_
 _atom_site_type_symbol
 _atom_site_label
 _atom_site_symmetry_multiplicity
 _atom_site_fract_x
 _atom_site_fract_y
 _atom_site_fract_z
 _atom_site_occupancy
  Ba  Ba0  2  0.00000000  0.00000000  0.00000000  1.0
  Ba  Ba1  2  0.00000000  0.00000000  0.25000000  1.0
  Ba  Ba2  2  0.33333333  0.66666667  0.75000000  1.0
  Fe  Fe3  6  0.00000000  0.50000000  0.00000000  1.0
  O  O4  12  0.20823835  0.41647669  0.50002245  1.0
  O  O5  6  0.03320340  0.51660170  0.25000000  1.0
# generated using pymatgen
data_BaFeO3
_symmetry_space_group_name_H-M   P-43m
_cell_length_a   10.06742600
_cell_length_b   10.06742600
_cell_length_c   10.06742600
_cell_angle_alpha   90.00000000
_cell_angle_beta   90.00000000
_cell_angle_gamma   90.00000000
_symmetry_Int_Tables_number   215
_chemical_formula_structural   BaFeO3
_chemical_formula_sum   'ID_9'
_cell_volume   1020.36449315
_cell_formula_units_Z   6
loop_
 _symmetry_equiv_pos_site_id
 _symmetry_equiv_pos_as_xyz
  1  'x, y, z'
  2  'y, -x, -z'
  3  '-x, -y, z'
  4  '-y, x, -z'
  5  'x, -y, -z'
  6  'y, x, z'
  7  '-x, y, -z'
  8  '-y, -x, z'
  9  'z, x, y'
  10  '-z, y, -x'
  11  'z, -x, -y'
  12  '-z, -y, x'
  13  '-z, x, -y'
  14  'z, y, x'
  15  '-z, -x, y'
  16  'z, -y, -x'
  17  'y, z, x'
  18  '-x, -z, y'
  19  '-y, z, -x'
  20  'x, -z, -y'
  21  '-y, -z, x'
  22  'x, z, y'
  23  'y, -z, -x'
  24  '-x, z, -y'
loop_
 _atom_site_type_symbol
 _atom_site_label
 _atom_site_symmetry_multiplicity
 _atom_site_fract_x
 _atom_site_fract_y
 _atom_site_fract_z
 _atom_site_occupancy
  Ba  Ba0  6  0.18645279  0.50000000  0.50000000  1.0
  Fe  Fe1  6  0.00000000  0.00000000  0.20530223  1.0
  O  O2  12  0.00000000  0.33425185  0.50000000  1.0
  O  O3  4  0.13531361  0.13531361  0.13531361  1.0
  O  O4  1  0.00000000  0.00000000  0.00000000  1.0
  O  O5  1  0.50000000  0.50000000  0.50000000  1.0
