# generated using pymatgen
data_BaFeO3
_symmetry_space_group_name_H-M   P-4m2
_cell_length_a   13.81956880
_cell_length_b   13.81956880
_cell_length_c   3.84847359
_cell_angle_alpha   90.00000000
_cell_angle_beta   90.00000000
_cell_angle_gamma   90.00000000
_symmetry_Int_Tables_number   115
_chemical_formula_structural   BaFeO3
_chemical_formula_sum   'ID_0'
_cell_volume   734.98334079
_cell_formula_units_Z   6
loop_
 _symmetry_equiv_pos_site_id
 _symmetry_equiv_pos_as_xyz
  1  'x, y, z'
  2  'y, -x, -z'
  3  '-x, -y, z'
  4  '-y, x, -z'
  5  '-x, y, z'
  6  '-y, -x, -z'
  7  'x, -y, z'
  8  'y, x, -z'
loop_
 _atom_site_type_symbol
 _atom_site_label
 _atom_site_symmetry_multiplicity
 _atom_site_fract_x
 _atom_site_fract_y
 _atom_site_fract_z
 _atom_site_occupancy
  Ba  Ba0  4  0.33451816  0.33451816  0.00000000  1.0
  Ba  Ba1  1  0.00000000  0.00000000  0.00000000  1.0
  Ba  Ba2  1  0.50000000  0.50000000  0.50000000  1.0
  Fe  Fe3  4  0.13801261  0.13801261  0.50000000  1.0
  Fe  Fe4  2  0.00000000  0.50000000  0.74017834  1.0
  O  O5  8  0.17018140  0.22676131  0.87256676  1.0
  O  O6  4  0.00000000  0.14589944  0.44443738  1.0
  O  O7  4  0.33138470  0.50000000  0.74757009  1.0
  O  O8  2  0.00000000  0.50000000  0.23980309  1.0
# generated using pymatgen
data_BaFeO3
_symmetry_space_group_name_H-M   P4/nmm
_cell_length_a   7.58301144
_cell_length_b   7.58301144
_cell_length_c   15.38136332
_cell_angle_alpha   90.00000000
_cell_angle_beta   90.00000000
_cell_angle_gamma   90.00000000
_symmetry_Int_Tables_number   129
_chemical_formula_structural   BaFeO3
_chemical_formula_sum   'ID_1'
_cell_volume   884.46011548
_cell_formula_units_Z   6
loop_
 _symmetry_equiv_pos_site_id
 _symmetry_equiv_pos_as_xyz
  1  'x, y, z'
  2  '-y+1/2, x+1/2, z'
  3  '-x, -y, z'
  4  'y+1/2, -x+1/2, z'
  5  'x+1/2, -y+1/2, -z'
  6  '-y, -x, -z'
  7  '-x+1/2, y+1/2, -z'
  8  'y, x, -z'
  9  '-x+1/2, -y+1/2, -z'
  10  'y, -x, -z'
  11  'x+1/2, y+1/2, -z'
  12  '-y, x, -z'
  13  '-x, y, z'
  14  'y+1/2, x+1/2, z'
  15  'x, -y, z'
  16  '-y+1/2, -x+1/2, z'
loop_
 _atom_site_type_symbol
 _atom_site_label
 _atom_site_symmetry_multiplicity
 _atom_site_fract_x
 _atom_site_fract_y
 _atom_site_fract_z
 _atom_site_occupancy
  Ba  Ba0  4  0.25000000  0.25000000  0.50000000  1.0
  Ba  Ba1  2  0.00000000  0.50000000  0.84435412  1.0
  Fe  Fe2  4  0.25000000  0.25000000  0.00000000  1.0
  Fe  Fe3  2  0.00000000  0.00000000  0.50000000  1.0
  O  O4  16  0.09110129  0.17048366  0.90560800  1.0
  O  O5  2  0.00000000  0.50000000  0.01128300  1.0
# generated using pymatgen
data_BaFeO3
_symmetry_space_group_name_H-M   P-3
_cell_length_a   7.47860392
_cell_length_b   7.47860392
_cell_length_c   10.43377970
_cell_angle_alpha   90.00000000
_cell_angle_beta   90.00000000
_cell_angle_gamma   120.00000000
_symmetry_Int_Tables_number   147
_chemical_formula_structural   BaFeO3
_chemical_formula_sum   'ID_2'
_cell_volume   505.37454095
_cell_formula_units_Z   6
loop_
 _symmetry_equiv_pos_site_id
 _symmetry_equiv_pos_as_xyz
  1  'x, y, z'
  2  '-x, -y, -z'
  3  '-y, x-y, z'
  4  'y, -x+y, -z'
  5  '-x+y, -x, z'
  6  'x-y, x, -z'
loop_
 _atom_site_type_symbol
 _atom_site_label
 _atom_site_symmetry_multiplicity
 _atom_site_fract_x
 _atom_site_fract_y
 _atom_site_fract_z
 _atom_site_occupancy
  Ba  Ba0  2  0.33333333  0.66666667  0.08155877  1.0
  Ba  Ba1  2  0.33333333  0.66666667  0.73390442  1.0
  Ba  Ba2  1  0.00000000  0.00000000  0.00000000  1.0
  Ba  Ba3  1  0.00000000  0.00000000  0.50000000  1.0
  Fe  Fe4  6  0.11101450  0.44532533  0.40144101  1.0
  O  O5  6  0.04035534  0.66680380  0.42503545  1.0
  O  O6  6  0.04681103  0.31855995  0.22361313  1.0
  O  O7  6  0.05855627  0.66691526  0.89471204  1.0
# generated using pymatgen
data_BaFeO3
_symmetry_space_group_name_H-M   P4bm
_cell_length_a   7.84519727
_cell_length_b   7.84519727
_cell_length_c   11.20602822
_cell_angle_alpha   90.00000000
_cell_angle_beta   90.00000000
_cell_angle_gamma   90.00000000
_symmetry_Int_Tables_number   100
_chemical_formula_structural   BaFeO3
_chemical_formula_sum   'ID_3'
_cell_volume   689.69876582
_cell_formula_units_Z   6
loop_
 _symmetry_equiv_pos_site_id
 _symmetry_equiv_pos_as_xyz
  1  'x, y, z'
  2  '-y, x, z'
  3  '-x, -y, z'
  4  'y, -x, z'
  5  '-x+1/2, y+1/2, z'
  6  'y+1/2, x+1/2, z'
  7  'x+1/2, -y+1/2, z'
  8  '-y+1/2, -x+1/2, z'
loop_
 _atom_site_type_symbol
 _atom_site_label
 _atom_site_symmetry_multiplicity
 _atom_site_fract_x
 _atom_site_fract_y
 _atom_site_fract_z
 _atom_site_occupancy
  Ba  Ba0  4  0.19401813  0.69401813  0.66069979  1.0
  Ba  Ba1  2  0.00000000  0.00000000  0.27924535  1.0
  Fe  Fe2  4  0.24983934  0.25016066  0.10421655  1.0
  Fe  Fe3  2  0.00000000  0.00000000  0.55069630  1.0
  O  O4  8  0.00015715  0.75391282  0.12059874  1.0
  O  O5  8  0.04525476  0.22356903  0.51958815  1.0
  O  O6  2  0.00000000  0.00000000  0.71585567  1.0
# generated using pymatgen
data_BaFeO3
_symmetry_space_group_name_H-M   Fmmm
_cell_length_a   9.84564276
_cell_length_b   14.41425854
_cell_length_c   26.66393120
_cell_angle_alpha   90.00000000
_cell_angle_beta   90.00000000
_cell_angle_gamma   90.00000000
_symmetry_Int_Tables_number   69
_chemical_formula_structural   BaFeO3
_chemical_formula_sum   'ID_4'
_cell_volume   3784.08219581
_cell_formula_units_Z   24
loop_
 _symmetry_equiv_pos_site_id
 _symmetry_equiv_pos_as_xyz
  1  'x, y, z'
  2  '-x, -y, -z'
  3  '-x, -y, z'
  4  'x, y, -z'
  5  'x, -y, -z'
  6  '-x, y, z'
  7  '-x, y, -z'
  8  'x, -y, z'
  9  'x+1/2, y, z+1/2'
  10  '-x+1/2, -y, -z+1/2'
  11  '-x+1/2, -y, z+1/2'
  12  'x+1/2, y, -z+1/2'
  13  'x+1/2, -y, -z+1/2'
  14  '-x+1/2, y, z+1/2'
  15  '-x+1/2, y, -z+1/2'
  16  'x+1/2, -y, z+1/2'
  17  'x+1/2, y+1/2, z'
  18  '-x+1/2, -y+1/2, -z'
  19  '-x+1/2, -y+1/2, z'
  20  'x+1/2, y+1/2, -z'
  21  'x+1/2, -y+1/2, -z'
  22  '-x+1/2, y+1/2, z'
  23  '-x+1/2, y+1/2, -z'
  24  'x+1/2, -y+1/2, z'
  25  'x, y+1/2, z+1/2'
  26  '-x, -y+1/2, -z+1/2'
  27  '-x, -y+1/2, z+1/2'
  28  'x, y+1/2, -z+1/2'
  29  'x, -y+1/2, -z+1/2'
  30  '-x, y+1/2, z+1/2'
  31  '-x, y+1/2, -z+1/2'
  32  'x, -y+1/2, z+1/2'
loop_
 _atom_site_type_symbol
 _atom_site_label
 _atom_site_symmetry_multiplicity
 _atom_site_fract_x
 _atom_site_fract_y
 _atom_site_fract_z
 _atom_site_occupancy
  Ba  Ba0  8  0.00000000  0.24994485  0.00000000  1.0
  Ba  Ba1  8  0.16603713  0.00000000  0.50000000  1.0
  Ba  Ba2  8  0.25000000  0.25000000  0.25000000  1.0
  Fe  Fe3  16  0.00000000  0.15087897  0.37894077  1.0
  Fe  Fe4  8  0.25000000  0.00000000  0.25000000  1.0
  O  O5  32  0.15711071  0.19497023  0.33777486  1.0
  O  O6  16  0.00000000  0.10196180  0.44296012  1.0
  O  O7  16  0.25000000  0.25000000  0.13013477  1.0
  O  O8  8  0.25000000  0.25000000  0.00000000  1.0
