# generated using pymatgen
data_BaFeO3
_symmetry_space_group_name_H-M   P4/nbm
_cell_length_a   7.50190957
_cell_length_b   7.50190957
_cell_length_c   12.25769399
_cell_angle_alpha   90.00000000
_cell_angle_beta   90.00000000
_cell_angle_gamma   90.00000000
_symmetry_Int_Tables_number   125
_chemical_formula_structural   BaFeO3
_chemical_formula_sum   'ID_0'
_cell_volume   689.84643524
_cell_formula_units_Z   6
loop_
 _symmetry_equiv_pos_site_id
 _symmetry_equiv_pos_as_xyz
  1  'x, y, z'
  2  '-y, x, z'
  3  '-x, -y, z'
  4  'y, -x, z'
  5  'x, -y, -z'
  6  '-y, -x, -z'
  7  '-x, y, -z'
  8  'y, x, -z'
  9  '-x+1/2, -y+1/2, -z'
  10  'y+1/2, -x+1/2, -z'
  11  'x+1/2, y+1/2, -z'
  12  '-y+1/2, x+1/2, -z'
  13  '-x+1/2, y+1/2, z'
  14  'y+1/2, x+1/2, z'
  15  'x+1/2, -y+1/2, z'
  16  '-y+1/2, -x+1/2, z'
loop_
 _atom_site_type_symbol
 _atom_site_label
 _atom_site_symmetry_multiplicity
 _atom_site_fract_x
 _atom_site_fract_y
 _atom_site_fract_z
 _atom_site_occupancy
  Ba  Ba0  4  0.00000000  0.00000000  0.19033215  1.0
  Ba  Ba1  2  0.00000000  0.00000000  0.50000000  1.0
  Fe  Fe2  4  0.00000000  0.50000000  0.34788974  1.0
  Fe  Fe3  2  0.00000000  0.50000000  0.00000000  1.0
  O  O4  16  0.09933838  0.25679450  0.34712813  1.0
  O  O5  2  0.00000000  0.00000000  0.00000000  1.0
# generated using pymatgen
data_BaFeO3
_symmetry_space_group_name_H-M   I2_13
_cell_length_a   10.71200685
_cell_length_b   10.71200685
_cell_length_c   10.71200685
_cell_angle_alpha   90.00000000
_cell_angle_beta   90.00000000
_cell_angle_gamma   90.00000000
_symmetry_Int_Tables_number   199
_chemical_formula_structural   BaFeO3
_chemical_formula_sum   'ID_1'
_cell_volume   1229.17162274
_cell_formula_units_Z   12
loop_
 _symmetry_equiv_pos_site_id
 _symmetry_equiv_pos_as_xyz
  1  'x, y, z'
  2  '-x, -y+1/2, z'
  3  'x, -y, -z+1/2'
  4  '-x, y+1/2, -z+1/2'
  5  'z, x, y'
  6  'z, -x, -y+1/2'
  7  '-z+1/2, x, -y'
  8  '-z+1/2, -x, y+1/2'
  9  'y, z, x'
  10  '-y+1/2, z, -x'
  11  '-y, -z+1/2, x'
  12  'y+1/2, -z+1/2, -x'
  13  'x+1/2, y+1/2, z+1/2'
  14  '-x+1/2, -y, z+1/2'
  15  'x+1/2, -y+1/2, -z'
  16  '-x+1/2, y, -z'
  17  'z+1/2, x+1/2, y+1/2'
  18  'z+1/2, -x+1/2, -y'
  19  '-z, x+1/2, -y+1/2'
  20  '-z, -x+1/2, y'
  21  'y+1/2, z+1/2, x+1/2'
  22  '-y, z+1/2, -x+1/2'
  23  '-y+1/2, -z, x+1/2'
  24  'y, -z, -x+1/2'
loop_
 _atom_site_type_symbol
 _atom_site_label
 _atom_site_symmetry_multiplicity
 _atom_site_fract_x
 _atom_site_fract_y
 _atom_site_fract_z
 _atom_site_occupancy
  Ba  Ba0  12  0.00000000  0.25000000  0.29818345  1.0
  Fe  Fe1  12  0.00000000  0.25000000  0.57204644  1.0
  O  O2  12  0.00000000  0.25000000  0.08548136  1.0
  O  O3  12  0.00000000  0.25000000  0.73727975  1.0
  O  O4  12  0.00000000  0.25000000  0.95375170  1.0
# generated using pymatgen
data_BaFeO3
_symmetry_space_group_name_H-M   P-4b2
_cell_length_a   8.02748044
_cell_length_b   8.02748044
_cell_length_c   16.84997030
_cell_angle_alpha   90.00000000
_cell_angle_beta   90.00000000
_cell_angle_gamma   90.00000000
_symmetry_Int_Tables_number   117
_chemical_formula_structural   BaFeO3
_chemical_formula_sum   'ID_2'
_cell_volume   1085.81953779
_cell_formula_units_Z   6
loop_
 _symmetry_equiv_pos_site_id
 _symmetry_equiv_pos_as_xyz
  1  'x, y, z'
  2  'y, -x, -z'
  3  '-x, -y, z'
  4  '-y, x, -z'
  5  '-x+1/2, y+1/2, z'
  6  '-y+1/2, -x+1/2, -z'
  7  'x+1/2, -y+1/2, z'
  8  'y+1/2, x+1/2, -z'
loop_
 _atom_site_type_symbol
 _atom_site_label
 _atom_site_symmetry_multiplicity
 _atom_site_fract_x
 _atom_site_fract_y
 _atom_site_fract_z
 _atom_site_occupancy
  Ba  Ba0  4  0.00000000  0.50000000  0.15353891  1.0
  Ba  Ba1  2  0.00000000  0.00000000  0.00000000  1.0
  Fe  Fe2  4  0.16723157  0.66723157  0.00000000  1.0
  Fe  Fe3  2  0.00000000  0.50000000  0.50000000  1.0
  O  O4  8  0.04126274  0.93371990  0.28027583  1.0
  O  O5  8  0.16224137  0.77161934  0.90302087  1.0
  O  O6  2  0.00000000  0.50000000  0.00000000  1.0
# generated using pymatgen
data_BaFeO3
_symmetry_space_group_name_H-M   Ibam
_cell_length_a   14.16598595
_cell_length_b   15.80613353
_cell_length_c   9.67085760
_cell_angle_alpha   90.00000000
_cell_angle_beta   90.00000000
_cell_angle_gamma   90.00000000
_symmetry_Int_Tables_number   72
_chemical_formula_structural   BaFeO3
_chemical_formula_sum   'ID_3'
_cell_volume   2165.39655625
_cell_formula_units_Z   12
loop_
 _symmetry_equiv_pos_site_id
 _symmetry_equiv_pos_as_xyz
  1  'x, y, z'
  2  '-x, -y, -z'
  3  '-x, -y, z'
  4  'x, y, -z'
  5  'x, -y, -z+1/2'
  6  '-x, y, z+1/2'
  7  '-x, y, -z+1/2'
  8  'x, -y, z+1/2'
  9  'x+1/2, y+1/2, z+1/2'
  10  '-x+1/2, -y+1/2, -z+1/2'
  11  '-x+1/2, -y+1/2, z+1/2'
  12  'x+1/2, y+1/2, -z+1/2'
  13  'x+1/2, -y+1/2, -z'
  14  '-x+1/2, y+1/2, z'
  15  '-x+1/2, y+1/2, -z'
  16  'x+1/2, -y+1/2, z'
loop_
 _atom_site_type_symbol
 _atom_site_label
 _atom_site_symmetry_multiplicity
 _atom_site_fract_x
 _atom_site_fract_y
 _atom_site_fract_z
 _atom_site_occupancy
  Ba  Ba0  8  0.23113268  0.50000000  0.25000000  1.0
  Ba  Ba1  4  0.00000000  0.00000000  0.00000000  1.0
  Fe  Fe2  8  0.25000000  0.25000000  0.25000000  1.0
  Fe  Fe3  4  0.00000000  0.50000000  0.25000000  1.0
  O  O4  16  0.07129194  0.44081569  0.34398234  1.0
  O  O5  16  0.20163033  0.14856591  0.25785593  1.0
  O  O6  4  0.00000000  0.00000000  0.25000000  1.0
# generated using pymatgen
data_BaFeO3
_symmetry_space_group_name_H-M   P6/mmm
_cell_length_a   14.36980294
_cell_length_b   14.36980294
_cell_length_c   3.39797512
_cell_angle_alpha   90.00000000
_cell_angle_beta   90.00000000
_cell_angle_gamma   120.00000000
_symmetry_Int_Tables_number   191
_chemical_formula_structural   BaFeO3
_chemical_formula_sum   'ID_4'
_cell_volume   607.64853023
_cell_formula_units_Z   6
loop_
 _symmetry_equiv_pos_site_id
 _symmetry_equiv_pos_as_xyz
  1  'x, y, z'
  2  '-x, -y, -z'
  3  'x-y, x, z'
  4  '-x+y, -x, -z'
  5  '-y, x-y, z'
  6  'y, -x+y, -z'
  7  '-x, -y, z'
  8  'x, y, -z'
  9  '-x+y, -x, z'
  10  'x-y, x, -z'
  11  'y, -x+y, z'
  12  '-y, x-y, -z'
  13  '-y, -x, -z'
  14  'y, x, z'
  15  '-x, -x+y, -z'
  16  'x, x-y, z'
  17  '-x+y, y, -z'
  18  'x-y, -y, z'
  19  'y, x, -z'
  20  '-y, -x, z'
  21  'x, x-y, -z'
  22  '-x, -x+y, z'
  23  'x-y, -y, -z'
  24  '-x+y, y, z'
loop_
 _atom_site_type_symbol
 _atom_site_label
 _atom_site_symmetry_multiplicity
 _atom_site_fract_x
 _atom_site_fract_y
 _atom_site_fract_z
 _atom_site_occupancy
  Ba  Ba0  3  0.00000000  0.50000000  0.00000000  1.0
  Ba  Ba1  2  0.33333333  0.66666667  0.00000000  1.0
  Ba  Ba2  1  0.00000000  0.00000000  0.50000000  1.0
  Fe  Fe3  6  0.00000000  0.24161558  0.00000000  1.0
  O  O4  12  0.09364171  0.29339134  0.50000000  1.0
  O  O5  6  0.15658781  0.57829390  0.50000000  1.0
# generated using pymatgen
data_BaFeO3
_symmetry_space_group_name_H-M   P4_2cm
_cell_length_a   9.16211102
_cell_length_b   9.16211102
_cell_length_c   9.00339246
_cell_angle_alpha   90.00000000
_cell_angle_beta   90.00000000
_cell_angle_gamma   90.00000000
_symmetry_Int_Tables_number   101
_chemical_formula_structural   BaFeO3
_chemical_formula_sum   'ID_5'
_cell_volume   755.78328257
_cell_formula_units_Z   6
loop_
 _symmetry_equiv_pos_site_id
 _symmetry_equiv_pos_as_xyz
  1  'x, y, z'
  2  '-y, x, z+1/2'
  3  '-x, -y, z'
  4  'y, -x, z+1/2'
  5  '-x, y, z+1/2'
  6  'y, x, z'
  7  'x, -y, z+1/2'
  8  '-y, -x, z'
loop_
 _atom_site_type_symbol
 _atom_site_label
 _atom_site_symmetry_multiplicity
 _atom_site_fract_x
 _atom_site_fract_y
 _atom_site_fract_z
 _atom_site_occupancy
  Ba  Ba0  4  0.00000000  0.50000000  0.40829649  1.0
  Ba  Ba1  2  0.00000000  0.00000000  0.15792415  1.0
  Fe  Fe2  4  0.29422803  0.29422803  0.65717228  1.0
  Fe  Fe3  2  0.50000000  0.50000000  0.12888423  1.0
  O  O4  8  0.07762149  0.32996986  0.65766947  1.0
  O  O5  8  0.17420359  0.46828438  0.65886997  1.0
  O  O6  2  0.00000000  0.00000000  0.40794083  1.0
# generated using pymatgen
data_BaFeO3
_symmetry_space_group_name_H-M   P-4n2
_cell_length_a   7.54545441
_cell_length_b   7.54545441
_cell_length_c   16.26480131
_cell_angle_alpha   90.00000000
_cell_angle_beta   90.00000000
_cell_angle_gamma   90.00000000
_symmetry_Int_Tables_number   118
_chemical_formula_structural   BaFeO3
_chemical_formula_sum   'ID_6'
_cell_volume   926.01828355
_cell_formula_units_Z   6
loop_
 _symmetry_equiv_pos_site_id
 _symmetry_equiv_pos_as_xyz
  1  'x, y, z'
  2  'y, -x, -z'
  3  '-x, -y, z'
  4  '-y, x, -z'
  5  '-x+1/2, y+1/2, z+1/2'
  6  '-y+1/2, -x+1/2, -z+1/2'
  7  'x+1/2, -y+1/2, z+1/2'
  8  'y+1/2, x+1/2, -z+1/2'
loop_
 _atom_site_type_symbol
 _atom_site_label
 _atom_site_symmetry_multiplicity
 _atom_site_fract_x
 _atom_site_fract_y
 _atom_site_fract_z
 _atom_site_occupancy
  Ba  Ba0  4  0.00000000  0.50000000  0.55695840  1.0
  Ba  Ba1  2  0.00000000  0.00000000  0.50000000  1.0
  Fe  Fe2  4  0.00000000  0.50000000  0.13806677  1.0
  Fe  Fe3  2  0.00000000  0.00000000  0.00000000  1.0
  O  O4  8  0.01396786  0.30522306  0.43012439  1.0
  O  O5  8  0.07607242  0.16085707  0.93997396  1.0
  O  O6  2  0.00000000  0.50000000  0.25000000  1.0
# generated using pymatgen
data_BaFeO3
_symmetry_space_group_name_H-M   P321
_cell_length_a   9.89099601
_cell_length_b   9.89099601
_cell_length_c   26.15972031
_cell_angle_alpha   90.00000000
_cell_angle_beta   90.00000000
_cell_angle_gamma   120.00000000
_symmetry_Int_Tables_number   150
_chemical_formula_structural   BaFeO3
_chemical_formula_sum   'ID_7'
_cell_volume   2216.37774968
_cell_formula_units_Z   6
loop_
 _symmetry_equiv_pos_site_id
 _symmetry_equiv_pos_as_xyz
  1  'x, y, z'
  2  '-y, x-y, z'
  3  '-x+y, -x, z'
  4  'y, x, -z'
  5  'x-y, -y, -z'
  6  '-x, -x+y, -z'
loop_
 _atom_site_type_symbol
 _atom_site_label
 _atom_site_symmetry_multiplicity
 _atom_site_fract_x
 _atom_site_fract_y
 _atom_site_fract_z
 _atom_site_occupancy
  Ba  Ba0  3  0.00000000  0.36480698  0.00000000  1.0
  Ba  Ba1  2  0.00000000  0.00000000  0.12503902  1.0
  Ba  Ba2  1  0.00000000  0.00000000  0.50000000  1.0
  Fe  Fe3  3  0.00000000  0.71503997  0.00000000  1.0
  Fe  Fe4  2  0.00000000  0.00000000  0.24794603  1.0
  Fe  Fe5  1  0.00000000  0.00000000  0.00000000  1.0
  O  O6  6  0.01178388  0.20005098  0.74436959  1.0
  O  O7  6  0.06207266  0.19492403  0.79427392  1.0
  O  O8  6  0.10672500  0.88457560  0.95428871  1.0
# generated using pymatgen
data_BaFeO3
_symmetry_space_group_name_H-M   Cmmm
_cell_length_a   13.64826667
_cell_length_b   28.64312651
_cell_length_c   7.96813885
_cell_angle_alpha   90.00000000
_cell_angle_beta   90.00000000
_cell_angle_gamma   90.00000000
_symmetry_Int_Tables_number   65
_chemical_formula_structural   BaFeO3
_chemical_formula_sum   'ID_8'
_cell_volume   3114.97678428
_cell_formula_units_Z   12
loop_
 _symmetry_equiv_pos_site_id
 _symmetry_equiv_pos_as_xyz
  1  'x, y, z'
  2  '-x, -y, -z'
  3  '-x, -y, z'
  4  'x, y, -z'
  5  'x, -y, -z'
  6  '-x, y, z'
  7  '-x, y, -z'
  8  'x, -y, z'
  9  'x+1/2, y+1/2, z'
  10  '-x+1/2, -y+1/2, -z'
  11  '-x+1/2, -y+1/2, z'
  12  'x+1/2, y+1/2, -z'
  13  'x+1/2, -y+1/2, -z'
  14  '-x+1/2, y+1/2, z'
  15  '-x+1/2, y+1/2, -z'
  16  'x+1/2, -y+1/2, z'
loop_
 _atom_site_type_symbol
 _atom_site_label
 _atom_site_symmetry_multiplicity
 _atom_site_fract_x
 _atom_site_fract_y
 _atom_site_fract_z
 _atom_site_occupancy
  Ba  Ba0  4  0.00000000  0.20337677  0.00000000  1.0
  Ba  Ba1  4  0.14604658  0.00000000  0.00000000  1.0
  Ba  Ba2  4  0.25000000  0.25000000  0.00000000  1.0
  Fe  Fe3  8  0.25000000  0.25000000  0.34606382  1.0
  Fe  Fe4  4  0.00000000  0.05158965  0.50000000  1.0
  O  O5  16  0.09670177  0.97479556  0.30452441  1.0
  O  O6  16  0.13889839  0.22940731  0.23974241  1.0
  O  O7  4  0.00000000  0.11126959  0.50000000  1.0
# generated using pymatgen
data_BaFeO3
_symmetry_space_group_name_H-M   P-42_1m
_cell_length_a   8.70949792
_cell_length_b   8.70949792
_cell_length_c   10.86414638
_cell_angle_alpha   90.00000000
_cell_angle_beta   90.00000000
_cell_angle_gamma   90.00000000
_symmetry_Int_Tables_number   113
_chemical_formula_structural   BaFeO3
_chemical_formula_sum   'ID_9'
_cell_volume   824.10367045
_cell_formula_units_Z   6
loop_
 _symmetry_equiv_pos_site_id
 _symmetry_equiv_pos_as_xyz
  1  'x, y, z'
  2  'y, -x, -z'
  3  '-x, -y, z'
  4  '-y, x, -z'
  5  'x+1/2, -y+1/2, -z'
  6  'y+1/2, x+1/2, z'
  7  '-x+1/2, y+1/2, -z'
  8  '-y+1/2, -x+1/2, z'
loop_
 _atom_site_type_symbol
 _atom_site_label
 _atom_site_symmetry_multiplicity
 _atom_site_fract_x
 _atom_site_fract_y
 _atom_site_fract_z
 _atom_site_occupancy
  Ba  Ba0  4  0.00000000  0.00000000  0.16616549  1.0
  Ba  Ba1  2  0.00000000  0.50000000  0.95408553  1.0
  Fe  Fe2  4  0.14262956  0.35737044  0.62052863  1.0
  Fe  Fe3  2  0.00000000  0.00000000  0.50000000  1.0
  O  O4  8  0.00385086  0.21326783  0.00207441  1.0
  O  O5  8  0.07722918  0.15722126  0.60652408  1.0
  O  O6  2  0.00000000  0.50000000  0.67954352  1.0
