# generated using pymatgen
data_BaFeO3
_symmetry_space_group_name_H-M   Cm
_cell_length_a   14.49829373
_cell_length_b   11.50825163
_cell_length_c   7.66807610
_cell_angle_alpha   90.00000000
_cell_angle_beta   109.88705658
_cell_angle_gamma   90.00000000
_symmetry_Int_Tables_number   8
_chemical_formula_structural   BaFeO3
_chemical_formula_sum   'ID_0'
_cell_volume   1203.12045959
_cell_formula_units_Z   12
loop_
 _symmetry_equiv_pos_site_id
 _symmetry_equiv_pos_as_xyz
  1  'x, y, z'
  2  'x, -y, z'
  3  'x+1/2, y+1/2, z'
  4  'x+1/2, -y+1/2, z'
loop_
 _atom_site_type_symbol
 _atom_site_label
 _atom_site_symmetry_multiplicity
 _atom_site_fract_x
 _atom_site_fract_y
 _atom_site_fract_z
 _atom_site_occupancy
  Ba  Ba0  4  0.11067473  0.18139099  0.22591792  1.0
  Ba  Ba1  4  0.34588747  0.18504653  0.73343398  1.0
  Ba  Ba2  2  0.33664199  0.50000000  0.20809850  1.0
  Ba  Ba3  2  0.44634011  0.50000000  0.80424367  1.0
  Fe  Fe4  4  0.11221759  0.10754646  0.66880790  1.0
  Fe  Fe5  4  0.13984207  0.32944144  0.81409267  1.0
  Fe  Fe6  2  0.08148050  0.50000000  0.02902785  1.0
  Fe  Fe7  2  0.22501883  0.50000000  0.67896517  1.0
  O  O8  4  0.03618588  0.21729797  0.79124639  1.0
  O  O9  4  0.15404687  0.24782302  0.58547164  1.0
  O  O10  4  0.16432044  0.36751618  0.07898911  1.0
  O  O11  4  0.28250858  0.37358806  0.85086651  1.0
  O  O12  4  0.38942301  0.07936574  0.07389005  1.0
  O  O13  4  0.48028220  0.11427581  0.07499759  1.0
  O  O14  2  0.00734017  0.00000000  0.14537665  1.0
  O  O15  2  0.01162764  0.00000000  0.52429128  1.0
  O  O16  2  0.09214701  0.50000000  0.75163700  1.0
  O  O17  2  0.14669104  0.00000000  0.87959153  1.0
  O  O18  2  0.21558170  0.00000000  0.59317683  1.0
  O  O19  2  0.27747532  0.50000000  0.49932652  1.0
# generated using pymatgen
data_BaFeO3
_symmetry_space_group_name_H-M   Ccc2
_cell_length_a   8.14426164
_cell_length_b   12.45775463
_cell_length_c   13.39386717
_cell_angle_alpha   90.00000000
_cell_angle_beta   90.00000000
_cell_angle_gamma   90.00000000
_symmetry_Int_Tables_number   37
_chemical_formula_structural   BaFeO3
_chemical_formula_sum   'ID_1'
_cell_volume   1358.93122514
_cell_formula_units_Z   12
loop_
 _symmetry_equiv_pos_site_id
 _symmetry_equiv_pos_as_xyz
  1  'x, y, z'
  2  '-x, -y, z'
  3  '-x, y, z+1/2'
  4  'x, -y, z+1/2'
  5  'x+1/2, y+1/2, z'
  6  '-x+1/2, -y+1/2, z'
  7  '-x+1/2, y+1/2, z+1/2'
  8  'x+1/2, -y+1/2, z+1/2'
loop_
 _atom_site_type_symbol
 _atom_site_label
 _atom_site_symmetry_multiplicity
 _atom_site_fract_x
 _atom_site_fract_y
 _atom_site_fract_z
 _atom_site_occupancy
  Ba  Ba0  8  0.24261453  0.48740435  0.66690865  1.0
  Ba  Ba1  4  0.00000000  0.00000000  0.43300572  1.0
  Fe  Fe2  8  0.04379726  0.25294874  0.59343805  1.0
  Fe  Fe3  4  0.00000000  0.50000000  0.44691713  1.0
  O  O4  8  0.00994782  0.39441446  0.05854602  1.0
  O  O5  8  0.03070022  0.11389404  0.08883013  1.0
  O  O6  8  0.19413099  0.44273787  0.86484384  1.0
  O  O7  8  0.19652105  0.43690734  0.36195205  1.0
  O  O8  4  0.25000000  0.25000000  0.65677434  1.0
# generated using pymatgen
data_BaFeO3
_symmetry_space_group_name_H-M   Im-3
_cell_length_a   12.14427778
_cell_length_b   12.14427778
_cell_length_c   12.14427778
_cell_angle_alpha   90.00000000
_cell_angle_beta   90.00000000
_cell_angle_gamma   90.00000000
_symmetry_Int_Tables_number   204
_chemical_formula_structural   BaFeO3
_chemical_formula_sum   'ID_2'
_cell_volume   1791.08038250
_cell_formula_units_Z   12
loop_
 _symmetry_equiv_pos_site_id
 _symmetry_equiv_pos_as_xyz
  1  'x, y, z'
  2  '-x, -y, -z'
  3  '-x, -y, z'
  4  'x, y, -z'
  5  'x, -y, -z'
  6  '-x, y, z'
  7  '-x, y, -z'
  8  'x, -y, z'
  9  'z, x, y'
  10  '-z, -x, -y'
  11  'z, -x, -y'
  12  '-z, x, y'
  13  '-z, x, -y'
  14  'z, -x, y'
  15  '-z, -x, y'
  16  'z, x, -y'
  17  'y, z, x'
  18  '-y, -z, -x'
  19  '-y, z, -x'
  20  'y, -z, x'
  21  '-y, -z, x'
  22  'y, z, -x'
  23  'y, -z, -x'
  24  '-y, z, x'
  25  'x+1/2, y+1/2, z+1/2'
  26  '-x+1/2, -y+1/2, -z+1/2'
  27  '-x+1/2, -y+1/2, z+1/2'
  28  'x+1/2, y+1/2, -z+1/2'
  29  'x+1/2, -y+1/2, -z+1/2'
  30  '-x+1/2, y+1/2, z+1/2'
  31  '-x+1/2, y+1/2, -z+1/2'
  32  'x+1/2, -y+1/2, z+1/2'
  33  'z+1/2, x+1/2, y+1/2'
  34  '-z+1/2, -x+1/2, -y+1/2'
  35  'z+1/2, -x+1/2, -y+1/2'
  36  '-z+1/2, x+1/2, y+1/2'
  37  '-z+1/2, x+1/2, -y+1/2'
  38  'z+1/2, -x+1/2, y+1/2'
  39  '-z+1/2, -x+1/2, y+1/2'
  40  'z+1/2, x+1/2, -y+1/2'
  41  'y+1/2, z+1/2, x+1/2'
  42  '-y+1/2, -z+1/2, -x+1/2'
  43  '-y+1/2, z+1/2, -x+1/2'
  44  'y+1/2, -z+1/2, x+1/2'
  45  '-y+1/2, -z+1/2, x+1/2'
  46  'y+1/2, z+1/2, -x+1/2'
  47  'y+1/2, -z+1/2, -x+1/2'
  48  '-y+1/2, z+1/2, x+1/2'
loop_
 _atom_site_type_symbol
 _atom_site_label
 _atom_site_symmetry_multiplicity
 _atom_site_fract_x
 _atom_site_fract_y
 _atom_site_fract_z
 _atom_site_occupancy
  Ba  Ba0  12  0.00000000  0.00000000  0.23740338  1.0
  Fe  Fe1  12  0.00000000  0.35026438  0.50000000  1.0
  O  O2  16  0.13230325  0.13230325  0.13230325  1.0
  O  O3  12  0.00000000  0.20948366  0.50000000  1.0
  O  O4  6  0.00000000  0.00000000  0.50000000  1.0
  O  O5  2  0.00000000  0.00000000  0.00000000  1.0
# generated using pymatgen
data_BaFeO3
_symmetry_space_group_name_H-M   P-31m
_cell_length_a   7.60478839
_cell_length_b   7.60478839
_cell_length_c   11.69020424
_cell_angle_alpha   90.00000000
_cell_angle_beta   90.00000000
_cell_angle_gamma   120.00000000
_symmetry_Int_Tables_number   162
_chemical_formula_structural   BaFeO3
_chemical_formula_sum   'ID_3'
_cell_volume   585.50013365
_cell_formula_units_Z   6
loop_
 _symmetry_equiv_pos_site_id
 _symmetry_equiv_pos_as_xyz
  1  'x, y, z'
  2  '-x, -y, -z'
  3  '-y, x-y, z'
  4  'y, -x+y, -z'
  5  '-x+y, -x, z'
  6  'x-y, x, -z'
  7  '-y, -x, -z'
  8  'y, x, z'
  9  '-x+y, y, -z'
  10  'x-y, -y, z'
  11  'x, x-y, -z'
  12  '-x, -x+y, z'
loop_
 _atom_site_type_symbol
 _atom_site_label
 _atom_site_symmetry_multiplicity
 _atom_site_fract_x
 _atom_site_fract_y
 _atom_site_fract_z
 _atom_site_occupancy
  Ba  Ba0  6  0.00000000  0.34253235  0.68534595  1.0
  Fe  Fe1  6  0.00000000  0.24824036  0.08670700  1.0
  O  O2  6  0.00000000  0.30243506  0.92132894  1.0
  O  O3  6  0.00000000  0.32625018  0.23483202  1.0
  O  O4  3  0.00000000  0.50000000  0.50000000  1.0
  O  O5  2  0.00000000  0.00000000  0.44362393  1.0
  O  O6  1  0.00000000  0.00000000  0.00000000  1.0
# generated using pymatgen
data_BaFeO3
_symmetry_space_group_name_H-M   P23
_cell_length_a   9.44032099
_cell_length_b   9.44032099
_cell_length_c   9.44032099
_cell_angle_alpha   90.00000000
_cell_angle_beta   90.00000000
_cell_angle_gamma   90.00000000
_symmetry_Int_Tables_number   195
_chemical_formula_structural   BaFeO3
_chemical_formula_sum   'ID_4'
_cell_volume   841.31820085
_cell_formula_units_Z   6
loop_
 _symmetry_equiv_pos_site_id
 _symmetry_equiv_pos_as_xyz
  1  'x, y, z'
  2  '-x, -y, z'
  3  'x, -y, -z'
  4  '-x, y, -z'
  5  'z, x, y'
  6  'z, -x, -y'
  7  '-z, x, -y'
  8  '-z, -x, y'
  9  'y, z, x'
  10  '-y, z, -x'
  11  '-y, -z, x'
  12  'y, -z, -x'
loop_
 _atom_site_type_symbol
 _atom_site_label
 _atom_site_symmetry_multiplicity
 _atom_site_fract_x
 _atom_site_fract_y
 _atom_site_fract_z
 _atom_site_occupancy
  Ba  Ba0  6  0.00000000  0.50000000  0.29101337  1.0
  Fe  Fe1  6  0.00000000  0.14993416  0.50000000  1.0
  O  O2  6  0.00000000  0.00000000  0.36244551  1.0
  O  O3  6  0.13964553  0.50000000  0.50000000  1.0
  O  O4  4  0.24755431  0.24755431  0.24755431  1.0
  O  O5  1  0.00000000  0.00000000  0.00000000  1.0
  O  O6  1  0.50000000  0.50000000  0.50000000  1.0
