# generated using pymatgen
data_BaFeO3
_symmetry_space_group_name_H-M   Pmm2
_cell_length_a   11.96123375
_cell_length_b   12.22604885
_cell_length_c   3.79506782
_cell_angle_alpha   90.00000000
_cell_angle_beta   90.00000000
_cell_angle_gamma   90.00000000
_symmetry_Int_Tables_number   25
_chemical_formula_structural   BaFeO3
_chemical_formula_sum   'ID_0'
_cell_volume   554.98551159
_cell_formula_units_Z   6
loop_
 _symmetry_equiv_pos_site_id
 _symmetry_equiv_pos_as_xyz
  1  'x, y, z'
  2  '-x, -y, z'
  3  '-x, y, z'
  4  'x, -y, z'
loop_
 _atom_site_type_symbol
 _atom_site_label
 _atom_site_symmetry_multiplicity
 _atom_site_fract_x
 _atom_site_fract_y
 _atom_site_fract_z
 _atom_site_occupancy
  Ba  Ba0  4  0.24926561  0.25181189  0.67851387  1.0
  Ba  Ba1  1  0.00000000  0.00000000  0.67219309  1.0
  Ba  Ba2  1  0.00000000  0.50000000  0.57938984  1.0
  Fe  Fe3  2  0.00000000  0.23861407  0.17309694  1.0
  Fe  Fe4  2  0.24267684  0.00000000  0.17562065  1.0
  Fe  Fe5  2  0.50000000  0.16865558  0.17824999  1.0
  O  O6  4  0.10981590  0.34623934  0.17887325  1.0
  O  O7  4  0.11720282  0.12158741  0.17165679  1.0
  O  O8  4  0.34954940  0.11853836  0.17981833  1.0
  O  O9  4  0.40643647  0.32695851  0.17603602  1.0
  O  O10  2  0.50000000  0.39588799  0.17583595  1.0
# generated using pymatgen
data_BaFeO3
_symmetry_space_group_name_H-M   Cmm2
_cell_length_a   10.02066959
_cell_length_b   14.62375678
_cell_length_c   12.22697423
_cell_angle_alpha   90.00000000
_cell_angle_beta   90.00000000
_cell_angle_gamma   90.00000000
_symmetry_Int_Tables_number   35
_chemical_formula_structural   BaFeO3
_chemical_formula_sum   'ID_1'
_cell_volume   1791.73878425
_cell_formula_units_Z   12
loop_
 _symmetry_equiv_pos_site_id
 _symmetry_equiv_pos_as_xyz
  1  'x, y, z'
  2  '-x, -y, z'
  3  '-x, y, z'
  4  'x, -y, z'
  5  'x+1/2, y+1/2, z'
  6  '-x+1/2, -y+1/2, z'
  7  '-x+1/2, y+1/2, z'
  8  'x+1/2, -y+1/2, z'
loop_
 _atom_site_type_symbol
 _atom_site_label
 _atom_site_symmetry_multiplicity
 _atom_site_fract_x
 _atom_site_fract_y
 _atom_site_fract_z
 _atom_site_occupancy
  Ba  Ba0  8  0.17651626  0.13063796  0.39009246  1.0
  Ba  Ba1  2  0.00000000  0.50000000  0.53789870  1.0
  Ba  Ba2  2  0.00000000  0.50000000  0.82514840  1.0
  Fe  Fe3  8  0.16870939  0.16148867  0.64673852  1.0
  Fe  Fe4  4  0.25000000  0.25000000  0.90872171  1.0
  O  O5  8  0.10991801  0.04500719  0.19921316  1.0
  O  O6  8  0.18886677  0.44815968  0.69810050  1.0
  O  O7  4  0.00000000  0.13063078  0.56479643  1.0
  O  O8  4  0.19259586  0.50000000  0.41509476  1.0
  O  O9  4  0.25000000  0.25000000  0.52791218  1.0
  O  O10  4  0.25000000  0.25000000  0.75822499  1.0
  O  O11  2  0.00000000  0.00000000  0.79992068  1.0
  O  O12  2  0.00000000  0.00000000  0.90280261  1.0
# generated using pymatgen
data_BaFeO3
_symmetry_space_group_name_H-M   P2_1/m
_cell_length_a   11.42494773
_cell_length_b   7.29808916
_cell_length_c   13.02014447
_cell_angle_alpha   90.00000000
_cell_angle_beta   106.96843873
_cell_angle_gamma   90.00000000
_symmetry_Int_Tables_number   11
_chemical_formula_structural   BaFeO3
_chemical_formula_sum   'ID_2'
_cell_volume   1038.36149071
_cell_formula_units_Z   6
loop_
 _symmetry_equiv_pos_site_id
 _symmetry_equiv_pos_as_xyz
  1  'x, y, z'
  2  '-x, -y, -z'
  3  '-x, y+1/2, -z'
  4  'x, -y+1/2, z'
loop_
 _atom_site_type_symbol
 _atom_site_label
 _atom_site_symmetry_multiplicity
 _atom_site_fract_x
 _atom_site_fract_y
 _atom_site_fract_z
 _atom_site_occupancy
  Ba  Ba0  4  0.21507959  0.51793407  0.32349215  1.0
  Ba  Ba1  2  0.00000000  0.00000000  0.50000000  1.0
  Fe  Fe2  4  0.30356848  0.00088654  0.12350319  1.0
  Fe  Fe3  2  0.00000000  0.00000000  0.00000000  1.0
  O  O4  4  0.12872227  0.01054670  0.12145728  1.0
  O  O5  4  0.22485692  0.12028895  0.61360491  1.0
  O  O6  4  0.23501163  0.07474360  0.51648510  1.0
  O  O7  2  0.08700013  0.75000000  0.38193653  1.0
  O  O8  2  0.33853730  0.75000000  0.18205428  1.0
  O  O9  2  0.35777064  0.25000000  0.13464054  1.0
# generated using pymatgen
data_BaFeO3
_symmetry_space_group_name_H-M   P222_1
_cell_length_a   7.01194630
_cell_length_b   11.97982277
_cell_length_c   6.20646536
_cell_angle_alpha   90.00000000
_cell_angle_beta   90.00000000
_cell_angle_gamma   90.00000000
_symmetry_Int_Tables_number   17
_chemical_formula_structural   BaFeO3
_chemical_formula_sum   'ID_3'
_cell_volume   521.35472086
_cell_formula_units_Z   6
loop_
 _symmetry_equiv_pos_site_id
 _symmetry_equiv_pos_as_xyz
  1  'x, y, z'
  2  '-x, -y, z+1/2'
  3  'x, -y, -z'
  4  '-x, y, -z+1/2'
loop_
 _atom_site_type_symbol
 _atom_site_label
 _atom_site_symmetry_multiplicity
 _atom_site_fract_x
 _atom_site_fract_y
 _atom_site_fract_z
 _atom_site_occupancy
  Ba  Ba0  4  0.30878264  0.17953129  0.48751137  1.0
  Ba  Ba1  2  0.36229899  0.50000000  0.50000000  1.0
  Fe  Fe2  4  0.19164389  0.27761545  0.96894591  1.0
  Fe  Fe3  2  0.15136556  0.00000000  0.00000000  1.0
  O  O4  4  0.10681647  0.33118182  0.25246963  1.0
  O  O5  4  0.31128315  0.12880085  0.97268553  1.0
  O  O6  4  0.33617266  0.37511212  0.82790481  1.0
  O  O7  2  0.00000000  0.03456674  0.25000000  1.0
  O  O8  2  0.00000000  0.24678432  0.75000000  1.0
  O  O9  2  0.50000000  0.31694467  0.25000000  1.0
# generated using pymatgen
data_BaFeO3
_symmetry_space_group_name_H-M   P4bm
_cell_length_a   7.27036834
_cell_length_b   7.27036834
_cell_length_c   13.48042224
_cell_angle_alpha   90.00000000
_cell_angle_beta   90.00000000
_cell_angle_gamma   90.00000000
_symmetry_Int_Tables_number   100
_chemical_formula_structural   BaFeO3
_chemical_formula_sum   'ID_4'
_cell_volume   712.55160646
_cell_formula_units_Z   6
loop_
 _symmetry_equiv_pos_site_id
 _symmetry_equiv_pos_as_xyz
  1  'x, y, z'
  2  '-y, x, z'
  3  '-x, -y, z'
  4  'y, -x, z'
  5  '-x+1/2, y+1/2, z'
  6  'y+1/2, x+1/2, z'
  7  'x+1/2, -y+1/2, z'
  8  '-y+1/2, -x+1/2, z'
loop_
 _atom_site_type_symbol
 _atom_site_label
 _atom_site_symmetry_multiplicity
 _atom_site_fract_x
 _atom_site_fract_y
 _atom_site_fract_z
 _atom_site_occupancy
  Ba  Ba0  4  0.20320307  0.70320307  0.19329037  1.0
  Ba  Ba1  2  0.00000000  0.50000000  0.90579421  1.0
  Fe  Fe2  2  0.00000000  0.00000000  0.70478571  1.0
  Fe  Fe3  2  0.00000000  0.50000000  0.41033318  1.0
  Fe  Fe4  2  0.00000000  0.50000000  0.69301218  1.0
  O  O5  8  0.00003200  0.74688556  0.74098779  1.0
  O  O6  4  0.14475842  0.35524158  0.34354031  1.0
  O  O7  2  0.00000000  0.00000000  0.16562263  1.0
  O  O8  2  0.00000000  0.00000000  0.58084159  1.0
  O  O9  2  0.00000000  0.50000000  0.08462570  1.0
# generated using pymatgen
data_BaFeO3
_symmetry_space_group_name_H-M   F-43m
_cell_length_a   13.73885930
_cell_length_b   13.73885930
_cell_length_c   13.73885930
_cell_angle_alpha   90.00000000
_cell_angle_beta   90.00000000
_cell_angle_gamma   90.00000000
_symmetry_Int_Tables_number   216
_chemical_formula_structural   BaFeO3
_chemical_formula_sum   'ID_5'
_cell_volume   2593.29562938
_cell_formula_units_Z   24
loop_
 _symmetry_equiv_pos_site_id
 _symmetry_equiv_pos_as_xyz
  1  'x, y, z'
  2  'y, -x, -z'
  3  '-x, -y, z'
  4  '-y, x, -z'
  5  'x, -y, -z'
  6  'y, x, z'
  7  '-x, y, -z'
  8  '-y, -x, z'
  9  'z, x, y'
  10  '-z, y, -x'
  11  'z, -x, -y'
  12  '-z, -y, x'
  13  '-z, x, -y'
  14  'z, y, x'
  15  '-z, -x, y'
  16  'z, -y, -x'
  17  'y, z, x'
  18  '-x, -z, y'
  19  '-y, z, -x'
  20  'x, -z, -y'
  21  '-y, -z, x'
  22  'x, z, y'
  23  'y, -z, -x'
  24  '-x, z, -y'
  25  'x+1/2, y+1/2, z'
  26  'y+1/2, -x+1/2, -z'
  27  '-x+1/2, -y+1/2, z'
  28  '-y+1/2, x+1/2, -z'
  29  'x+1/2, -y+1/2, -z'
  30  'y+1/2, x+1/2, z'
  31  '-x+1/2, y+1/2, -z'
  32  '-y+1/2, -x+1/2, z'
  33  'z+1/2, x+1/2, y'
  34  '-z+1/2, y+1/2, -x'
  35  'z+1/2, -x+1/2, -y'
  36  '-z+1/2, -y+1/2, x'
  37  '-z+1/2, x+1/2, -y'
  38  'z+1/2, y+1/2, x'
  39  '-z+1/2, -x+1/2, y'
  40  'z+1/2, -y+1/2, -x'
  41  'y+1/2, z+1/2, x'
  42  '-x+1/2, -z+1/2, y'
  43  '-y+1/2, z+1/2, -x'
  44  'x+1/2, -z+1/2, -y'
  45  '-y+1/2, -z+1/2, x'
  46  'x+1/2, z+1/2, y'
  47  'y+1/2, -z+1/2, -x'
  48  '-x+1/2, z+1/2, -y'
  49  'x+1/2, y, z+1/2'
  50  'y+1/2, -x, -z+1/2'
  51  '-x+1/2, -y, z+1/2'
  52  '-y+1/2, x, -z+1/2'
  53  'x+1/2, -y, -z+1/2'
  54  'y+1/2, x, z+1/2'
  55  '-x+1/2, y, -z+1/2'
  56  '-y+1/2, -x, z+1/2'
  57  'z+1/2, x, y+1/2'
  58  '-z+1/2, y, -x+1/2'
  59  'z+1/2, -x, -y+1/2'
  60  '-z+1/2, -y, x+1/2'
  61  '-z+1/2, x, -y+1/2'
  62  'z+1/2, y, x+1/2'
  63  '-z+1/2, -x, y+1/2'
  64  'z+1/2, -y, -x+1/2'
  65  'y+1/2, z, x+1/2'
  66  '-x+1/2, -z, y+1/2'
  67  '-y+1/2, z, -x+1/2'
  68  'x+1/2, -z, -y+1/2'
  69  '-y+1/2, -z, x+1/2'
  70  'x+1/2, z, y+1/2'
  71  'y+1/2, -z, -x+1/2'
  72  '-x+1/2, z, -y+1/2'
  73  'x, y+1/2, z+1/2'
  74  'y, -x+1/2, -z+1/2'
  75  '-x, -y+1/2, z+1/2'
  76  '-y, x+1/2, -z+1/2'
  77  'x, -y+1/2, -z+1/2'
  78  'y, x+1/2, z+1/2'
  79  '-x, y+1/2, -z+1/2'
  80  '-y, -x+1/2, z+1/2'
  81  'z, x+1/2, y+1/2'
  82  '-z, y+1/2, -x+1/2'
  83  'z, -x+1/2, -y+1/2'
  84  '-z, -y+1/2, x+1/2'
  85  '-z, x+1/2, -y+1/2'
  86  'z, y+1/2, x+1/2'
  87  '-z, -x+1/2, y+1/2'
  88  'z, -y+1/2, -x+1/2'
  89  'y, z+1/2, x+1/2'
  90  '-x, -z+1/2, y+1/2'
  91  '-y, z+1/2, -x+1/2'
  92  'x, -z+1/2, -y+1/2'
  93  '-y, -z+1/2, x+1/2'
  94  'x, z+1/2, y+1/2'
  95  'y, -z+1/2, -x+1/2'
  96  '-x, z+1/2, -y+1/2'
loop_
 _atom_site_type_symbol
 _atom_site_label
 _atom_site_symmetry_multiplicity
 _atom_site_fract_x
 _atom_site_fract_y
 _atom_site_fract_z
 _atom_site_occupancy
  Ba  Ba0  24  0.00547431  0.25000000  0.75000000  1.0
  Fe  Fe1  16  0.07032492  0.07032492  0.42967508  1.0
  Fe  Fe2  4  0.00000000  0.00000000  0.00000000  1.0
  Fe  Fe3  4  0.25000000  0.25000000  0.25000000  1.0
  O  O4  48  0.02838908  0.12054708  0.87945292  1.0
  O  O5  24  0.00000000  0.00000000  0.33227353  1.0
# generated using pymatgen
data_BaFeO3
_symmetry_space_group_name_H-M   Ama2
_cell_length_a   8.82068294
_cell_length_b   16.10222179
_cell_length_c   7.86788016
_cell_angle_alpha   90.00000000
_cell_angle_beta   90.00000000
_cell_angle_gamma   90.00000000
_symmetry_Int_Tables_number   40
_chemical_formula_structural   BaFeO3
_chemical_formula_sum   'ID_6'
_cell_volume   1117.49542014
_cell_formula_units_Z   12
loop_
 _symmetry_equiv_pos_site_id
 _symmetry_equiv_pos_as_xyz
  1  'x, y, z'
  2  '-x, -y, z'
  3  '-x+1/2, y, z'
  4  'x+1/2, -y, z'
  5  'x, y+1/2, z+1/2'
  6  '-x, -y+1/2, z+1/2'
  7  '-x+1/2, y+1/2, z+1/2'
  8  'x+1/2, -y+1/2, z+1/2'
loop_
 _atom_site_type_symbol
 _atom_site_label
 _atom_site_symmetry_multiplicity
 _atom_site_fract_x
 _atom_site_fract_y
 _atom_site_fract_z
 _atom_site_occupancy
  Ba  Ba0  4  0.00000000  0.00000000  0.76995912  1.0
  Ba  Ba1  4  0.25000000  0.17333241  0.48378926  1.0
  Ba  Ba2  4  0.25000000  0.37235477  0.84378218  1.0
  Fe  Fe3  8  0.09558676  0.16584710  0.00658307  1.0
  Fe  Fe4  4  0.00000000  0.00000000  0.20227776  1.0
  O  O5  8  0.02193034  0.26093525  0.86457338  1.0
  O  O6  8  0.04646186  0.28880250  0.04687260  1.0
  O  O7  8  0.06396504  0.40932545  0.54848184  1.0
  O  O8  4  0.00000000  0.00000000  0.44148609  1.0
  O  O9  4  0.25000000  0.11452097  0.83620285  1.0
  O  O10  4  0.25000000  0.15061499  0.17210239  1.0
# generated using pymatgen
data_BaFeO3
_symmetry_space_group_name_H-M   R-3c
_cell_length_a   19.99018849
_cell_length_b   19.99018849
_cell_length_c   10.94839954
_cell_angle_alpha   90.00000000
_cell_angle_beta   90.00000000
_cell_angle_gamma   120.00000000
_symmetry_Int_Tables_number   167
_chemical_formula_structural   BaFeO3
_chemical_formula_sum   'ID_7'
_cell_volume   3788.91661607
_cell_formula_units_Z   18
loop_
 _symmetry_equiv_pos_site_id
 _symmetry_equiv_pos_as_xyz
  1  'x, y, z'
  2  '-x, -y, -z'
  3  '-y, x-y, z'
  4  'y, -x+y, -z'
  5  '-x+y, -x, z'
  6  'x-y, x, -z'
  7  'y, x, -z+1/2'
  8  '-y, -x, z+1/2'
  9  'x-y, -y, -z+1/2'
  10  '-x+y, y, z+1/2'
  11  '-x, -x+y, -z+1/2'
  12  'x, x-y, z+1/2'
  13  'x+2/3, y+1/3, z+1/3'
  14  '-x+2/3, -y+1/3, -z+1/3'
  15  '-y+2/3, x-y+1/3, z+1/3'
  16  'y+2/3, -x+y+1/3, -z+1/3'
  17  '-x+y+2/3, -x+1/3, z+1/3'
  18  'x-y+2/3, x+1/3, -z+1/3'
  19  'y+2/3, x+1/3, -z+5/6'
  20  '-y+2/3, -x+1/3, z+5/6'
  21  'x-y+2/3, -y+1/3, -z+5/6'
  22  '-x+y+2/3, y+1/3, z+5/6'
  23  '-x+2/3, -x+y+1/3, -z+5/6'
  24  'x+2/3, x-y+1/3, z+5/6'
  25  'x+1/3, y+2/3, z+2/3'
  26  '-x+1/3, -y+2/3, -z+2/3'
  27  '-y+1/3, x-y+2/3, z+2/3'
  28  'y+1/3, -x+y+2/3, -z+2/3'
  29  '-x+y+1/3, -x+2/3, z+2/3'
  30  'x-y+1/3, x+2/3, -z+2/3'
  31  'y+1/3, x+2/3, -z+1/6'
  32  '-y+1/3, -x+2/3, z+1/6'
  33  'x-y+1/3, -y+2/3, -z+1/6'
  34  '-x+y+1/3, y+2/3, z+1/6'
  35  '-x+1/3, -x+y+2/3, -z+1/6'
  36  'x+1/3, x-y+2/3, z+1/6'
loop_
 _atom_site_type_symbol
 _atom_site_label
 _atom_site_symmetry_multiplicity
 _atom_site_fract_x
 _atom_site_fract_y
 _atom_site_fract_z
 _atom_site_occupancy
  Ba  Ba0  18  0.00000000  0.29597835  0.75000000  1.0
  Fe  Fe1  18  0.00000000  0.46692978  0.75000000  1.0
  O  O2  36  0.01799728  0.42494764  0.62842137  1.0
  O  O3  18  0.00000000  0.44701530  0.25000000  1.0
# generated using pymatgen
data_BaFeO3
_symmetry_space_group_name_H-M   P6_3/m
_cell_length_a   17.34222551
_cell_length_b   17.34222551
_cell_length_c   4.98527710
_cell_angle_alpha   90.00000000
_cell_angle_beta   90.00000000
_cell_angle_gamma   120.00000000
_symmetry_Int_Tables_number   176
_chemical_formula_structural   BaFeO3
_chemical_formula_sum   'ID_8'
_cell_volume   1298.46304206
_cell_formula_units_Z   6
loop_
 _symmetry_equiv_pos_site_id
 _symmetry_equiv_pos_as_xyz
  1  'x, y, z'
  2  '-x, -y, -z'
  3  'x-y, x, z+1/2'
  4  '-x+y, -x, -z+1/2'
  5  '-y, x-y, z'
  6  'y, -x+y, -z'
  7  '-x, -y, z+1/2'
  8  'x, y, -z+1/2'
  9  '-x+y, -x, z'
  10  'x-y, x, -z'
  11  'y, -x+y, z+1/2'
  12  '-y, x-y, -z+1/2'
loop_
 _atom_site_type_symbol
 _atom_site_label
 _atom_site_symmetry_multiplicity
 _atom_site_fract_x
 _atom_site_fract_y
 _atom_site_fract_z
 _atom_site_occupancy
  Ba  Ba0  6  0.11942952  0.57075537  0.25000000  1.0
  Fe  Fe1  2  0.00000000  0.00000000  0.00000000  1.0
  Fe  Fe2  2  0.33333333  0.66666667  0.25000000  1.0
  Fe  Fe3  2  0.33333333  0.66666667  0.75000000  1.0
  O  O4  12  0.01962385  0.59190764  0.61205985  1.0
  O  O5  6  0.26535957  0.54687263  0.25000000  1.0
# generated using pymatgen
data_BaFeO3
_symmetry_space_group_name_H-M   I4_1
_cell_length_a   14.07709415
_cell_length_b   14.07709415
_cell_length_c   9.39327731
_cell_angle_alpha   90.00000000
_cell_angle_beta   90.00000000
_cell_angle_gamma   90.00000000
_symmetry_Int_Tables_number   80
_chemical_formula_structural   BaFeO3
_chemical_formula_sum   'ID_9'
_cell_volume   1861.41485171
_cell_formula_units_Z   12
loop_
 _symmetry_equiv_pos_site_id
 _symmetry_equiv_pos_as_xyz
  1  'x, y, z'
  2  '-y, x+1/2, z+1/4'
  3  '-x+1/2, -y+1/2, z+1/2'
  4  'y+1/2, -x, z+3/4'
  5  'x+1/2, y+1/2, z+1/2'
  6  '-y+1/2, x, z+3/4'
  7  '-x, -y, z'
  8  'y, -x+1/2, z+1/4'
loop_
 _atom_site_type_symbol
 _atom_site_label
 _atom_site_symmetry_multiplicity
 _atom_site_fract_x
 _atom_site_fract_y
 _atom_site_fract_z
 _atom_site_occupancy
  Ba  Ba0  8  0.00171146  0.74821838  0.62749724  1.0
  Ba  Ba1  4  0.00000000  0.00000000  0.58632771  1.0
  Fe  Fe2  8  0.00936270  0.10189410  0.27009233  1.0
  Fe  Fe3  4  0.00000000  0.00000000  0.92659964  1.0
  O  O4  8  0.00194059  0.10558010  0.81854981  1.0
  O  O5  8  0.09960389  0.11304163  0.41061655  1.0
  O  O6  8  0.11618819  0.85869368  0.33748748  1.0
  O  O7  8  0.12642123  0.62873502  0.74177900  1.0
  O  O8  4  0.00000000  0.00000000  0.12727381  1.0
