# generated using pymatgen
data_BaFeO3
_symmetry_space_group_name_H-M   P6mm
_cell_length_a   12.65186600
_cell_length_b   12.65186600
_cell_length_c   6.16810713
_cell_angle_alpha   90.00000000
_cell_angle_beta   90.00000000
_cell_angle_gamma   120.00000000
_symmetry_Int_Tables_number   183
_chemical_formula_structural   BaFeO3
_chemical_formula_sum   'ID_0'
_cell_volume   855.05038383
_cell_formula_units_Z   6
loop_
 _symmetry_equiv_pos_site_id
 _symmetry_equiv_pos_as_xyz
  1  'x, y, z'
  2  'x-y, x, z'
  3  '-y, x-y, z'
  4  '-x, -y, z'
  5  '-x+y, -x, z'
  6  'y, -x+y, z'
  7  'y, x, z'
  8  'x, x-y, z'
  9  'x-y, -y, z'
  10  '-y, -x, z'
  11  '-x, -x+y, z'
  12  '-x+y, y, z'
loop_
 _atom_site_type_symbol
 _atom_site_label
 _atom_site_symmetry_multiplicity
 _atom_site_fract_x
 _atom_site_fract_y
 _atom_site_fract_z
 _atom_site_occupancy
  Ba  Ba0  3  0.00000000  0.50000000  0.63135582  1.0
  Ba  Ba1  2  0.33333333  0.66666667  0.66328021  1.0
  Ba  Ba2  1  0.00000000  0.00000000  0.43455193  1.0
  Fe  Fe3  6  0.15959669  0.57979835  0.18779297  1.0
  O  O4  12  0.17713849  0.47291665  0.44272140  1.0
  O  O5  3  0.00000000  0.50000000  0.05514248  1.0
  O  O6  2  0.33333333  0.66666667  0.09109378  1.0
  O  O7  1  0.00000000  0.00000000  0.78709045  1.0
# generated using pymatgen
data_BaFeO3
_symmetry_space_group_name_H-M   I2_13
_cell_length_a   11.66011678
_cell_length_b   11.66011678
_cell_length_c   11.66011678
_cell_angle_alpha   90.00000000
_cell_angle_beta   90.00000000
_cell_angle_gamma   90.00000000
_symmetry_Int_Tables_number   199
_chemical_formula_structural   BaFeO3
_chemical_formula_sum   'ID_1'
_cell_volume   1585.28992750
_cell_formula_units_Z   12
loop_
 _symmetry_equiv_pos_site_id
 _symmetry_equiv_pos_as_xyz
  1  'x, y, z'
  2  '-x, -y+1/2, z'
  3  'x, -y, -z+1/2'
  4  '-x, y+1/2, -z+1/2'
  5  'z, x, y'
  6  'z, -x, -y+1/2'
  7  '-z+1/2, x, -y'
  8  '-z+1/2, -x, y+1/2'
  9  'y, z, x'
  10  '-y+1/2, z, -x'
  11  '-y, -z+1/2, x'
  12  'y+1/2, -z+1/2, -x'
  13  'x+1/2, y+1/2, z+1/2'
  14  '-x+1/2, -y, z+1/2'
  15  'x+1/2, -y+1/2, -z'
  16  '-x+1/2, y, -z'
  17  'z+1/2, x+1/2, y+1/2'
  18  'z+1/2, -x+1/2, -y'
  19  '-z, x+1/2, -y+1/2'
  20  '-z, -x+1/2, y'
  21  'y+1/2, z+1/2, x+1/2'
  22  '-y, z+1/2, -x+1/2'
  23  '-y+1/2, -z, x+1/2'
  24  'y, -z, -x+1/2'
loop_
 _atom_site_type_symbol
 _atom_site_label
 _atom_site_symmetry_multiplicity
 _atom_site_fract_x
 _atom_site_fract_y
 _atom_site_fract_z
 _atom_site_occupancy
  Ba  Ba0  12  0.00000000  0.25000000  0.49668795  1.0
  Fe  Fe1  12  0.00000000  0.25000000  0.88646664  1.0
  O  O2  24  0.06498845  0.42508642  0.36704823  1.0
  O  O3  12  0.00000000  0.25000000  0.73963943  1.0
# generated using pymatgen
data_BaFeO3
_symmetry_space_group_name_H-M   P6_1
_cell_length_a   7.45854462
_cell_length_b   7.45854462
_cell_length_c   12.32774425
_cell_angle_alpha   90.00000000
_cell_angle_beta   90.00000000
_cell_angle_gamma   120.00000000
_symmetry_Int_Tables_number   169
_chemical_formula_structural   BaFeO3
_chemical_formula_sum   'ID_2'
_cell_volume   593.91245360
_cell_formula_units_Z   6
loop_
 _symmetry_equiv_pos_site_id
 _symmetry_equiv_pos_as_xyz
  1  'x, y, z'
  2  'x-y, x, z+1/6'
  3  '-y, x-y, z+1/3'
  4  '-x, -y, z+1/2'
  5  '-x+y, -x, z+2/3'
  6  'y, -x+y, z+5/6'
loop_
 _atom_site_type_symbol
 _atom_site_label
 _atom_site_symmetry_multiplicity
 _atom_site_fract_x
 _atom_site_fract_y
 _atom_site_fract_z
 _atom_site_occupancy
  Ba  Ba0  6  0.19641712  0.62115512  0.25428574  1.0
  Fe  Fe1  6  0.00603592  0.68429131  0.52076903  1.0
  O  O2  6  0.04930846  0.57563645  0.02498917  1.0
  O  O3  6  0.07425131  0.76483929  0.66969413  1.0
  O  O4  6  0.19179898  0.44056153  0.78689872  1.0
# generated using pymatgen
data_BaFeO3
_symmetry_space_group_name_H-M   P4/mbm
_cell_length_a   8.60015261
_cell_length_b   8.60015261
_cell_length_c   13.33559231
_cell_angle_alpha   90.00000000
_cell_angle_beta   90.00000000
_cell_angle_gamma   90.00000000
_symmetry_Int_Tables_number   127
_chemical_formula_structural   BaFeO3
_chemical_formula_sum   'ID_3'
_cell_volume   986.33541147
_cell_formula_units_Z   6
loop_
 _symmetry_equiv_pos_site_id
 _symmetry_equiv_pos_as_xyz
  1  'x, y, z'
  2  '-x, -y, -z'
  3  '-y, x, z'
  4  'y, -x, -z'
  5  '-x, -y, z'
  6  'x, y, -z'
  7  'y, -x, z'
  8  '-y, x, -z'
  9  'x+1/2, -y+1/2, -z'
  10  '-x+1/2, y+1/2, z'
  11  '-y+1/2, -x+1/2, -z'
  12  'y+1/2, x+1/2, z'
  13  '-x+1/2, y+1/2, -z'
  14  'x+1/2, -y+1/2, z'
  15  'y+1/2, x+1/2, -z'
  16  '-y+1/2, -x+1/2, z'
loop_
 _atom_site_type_symbol
 _atom_site_label
 _atom_site_symmetry_multiplicity
 _atom_site_fract_x
 _atom_site_fract_y
 _atom_site_fract_z
 _atom_site_occupancy
  Ba  Ba0  4  0.19882398  0.30117602  0.50000000  1.0
  Ba  Ba1  2  0.00000000  0.50000000  0.00000000  1.0
  Fe  Fe2  4  0.24997255  0.74997255  0.00000000  1.0
  Fe  Fe3  2  0.00000000  0.00000000  0.50000000  1.0
  O  O4  8  0.00003527  0.21680317  0.00000000  1.0
  O  O5  4  0.00000000  0.00000000  0.37129404  1.0
  O  O6  4  0.00000000  0.50000000  0.44346294  1.0
  O  O7  2  0.00000000  0.00000000  0.00000000  1.0
# generated using pymatgen
data_BaFeO3
_symmetry_space_group_name_H-M   P6_3/mmc
_cell_length_a   9.73042780
_cell_length_b   9.73042780
_cell_length_c   10.35985010
_cell_angle_alpha   90.00000000
_cell_angle_beta   90.00000000
_cell_angle_gamma   120.00000000
_symmetry_Int_Tables_number   194
_chemical_formula_structural   BaFeO3
_chemical_formula_sum   'ID_4'
_cell_volume   849.46985641
_cell_formula_units_Z   6
loop_
 _symmetry_equiv_pos_site_id
 _symmetry_equiv_pos_as_xyz
  1  'x, y, z'
  2  '-x, -y, -z'
  3  'x-y, x, z+1/2'
  4  '-x+y, -x, -z+1/2'
  5  '-y, x-y, z'
  6  'y, -x+y, -z'
  7  '-x, -y, z+1/2'
  8  'x, y, -z+1/2'
  9  '-x+y, -x, z'
  10  'x-y, x, -z'
  11  'y, -x+y, z+1/2'
  12  '-y, x-y, -z+1/2'
  13  '-y, -x, -z+1/2'
  14  'y, x, z+1/2'
  15  '-x, -x+y, -z'
  16  'x, x-y, z'
  17  '-x+y, y, -z+1/2'
  18  'x-y, -y, z+1/2'
  19  'y, x, -z'
  20  '-y, -x, z'
  21  'x, x-y, -z+1/2'
  22  '-x, -x+y, z+1/2'
  23  'x-y, -y, -z'
  24  '-x+y, y, z'
loop_
 _atom_site_type_symbol
 _atom_site_label
 _atom_site_symmetry_multiplicity
 _atom_site_fract_x
 _atom_site_fract_y
 _atom_site_fract_z
 _atom_site_occupancy
  Ba  Ba0  6  0.00000000  0.50000000  0.00000000  1.0
  Fe  Fe1  6  0.22603159  0.45206317  0.75000000  1.0
  O  O2  12  0.19851481  0.39702962  0.58607158  1.0
  O  O3  6  0.09841081  0.54920540  0.75000000  1.0
# generated using pymatgen
data_BaFeO3
_symmetry_space_group_name_H-M   P4_2cm
_cell_length_a   7.00073453
_cell_length_b   7.00073453
_cell_length_c   13.13406457
_cell_angle_alpha   90.00000000
_cell_angle_beta   90.00000000
_cell_angle_gamma   90.00000000
_symmetry_Int_Tables_number   101
_chemical_formula_structural   BaFeO3
_chemical_formula_sum   'ID_5'
_cell_volume   643.70423454
_cell_formula_units_Z   6
loop_
 _symmetry_equiv_pos_site_id
 _symmetry_equiv_pos_as_xyz
  1  'x, y, z'
  2  '-y, x, z+1/2'
  3  '-x, -y, z'
  4  'y, -x, z+1/2'
  5  '-x, y, z+1/2'
  6  'y, x, z'
  7  'x, -y, z+1/2'
  8  '-y, -x, z'
loop_
 _atom_site_type_symbol
 _atom_site_label
 _atom_site_symmetry_multiplicity
 _atom_site_fract_x
 _atom_site_fract_y
 _atom_site_fract_z
 _atom_site_occupancy
  Ba  Ba0  4  0.26457835  0.26457835  0.77551437  1.0
  Ba  Ba1  2  0.50000000  0.50000000  0.02268032  1.0
  Fe  Fe2  4  0.00000000  0.50000000  0.03334301  1.0
  Fe  Fe3  2  0.00000000  0.00000000  0.46205800  1.0
  O  O4  8  0.00689715  0.27142579  0.94955074  1.0
  O  O5  8  0.18452041  0.48477173  0.62271752  1.0
  O  O6  2  0.50000000  0.50000000  0.33164849  1.0
# generated using pymatgen
data_BaFeO3
_symmetry_space_group_name_H-M   Fm-3m
_cell_length_a   12.92513001
_cell_length_b   12.92513001
_cell_length_c   12.92513001
_cell_angle_alpha   90.00000000
_cell_angle_beta   90.00000000
_cell_angle_gamma   90.00000000
_symmetry_Int_Tables_number   225
_chemical_formula_structural   BaFeO3
_chemical_formula_sum   'ID_6'
_cell_volume   2159.25911049
_cell_formula_units_Z   24
loop_
 _symmetry_equiv_pos_site_id
 _symmetry_equiv_pos_as_xyz
  1  'x, y, z'
  2  '-x, -y, -z'
  3  '-y, x, z'
  4  'y, -x, -z'
  5  '-x, -y, z'
  6  'x, y, -z'
  7  'y, -x, z'
  8  '-y, x, -z'
  9  'x, -y, -z'
  10  '-x, y, z'
  11  '-y, -x, -z'
  12  'y, x, z'
  13  '-x, y, -z'
  14  'x, -y, z'
  15  'y, x, -z'
  16  '-y, -x, z'
  17  'z, x, y'
  18  '-z, -x, -y'
  19  'z, -y, x'
  20  '-z, y, -x'
  21  'z, -x, -y'
  22  '-z, x, y'
  23  'z, y, -x'
  24  '-z, -y, x'
  25  '-z, x, -y'
  26  'z, -x, y'
  27  '-z, -y, -x'
  28  'z, y, x'
  29  '-z, -x, y'
  30  'z, x, -y'
  31  '-z, y, x'
  32  'z, -y, -x'
  33  'y, z, x'
  34  '-y, -z, -x'
  35  'x, z, -y'
  36  '-x, -z, y'
  37  '-y, z, -x'
  38  'y, -z, x'
  39  '-x, z, y'
  40  'x, -z, -y'
  41  '-y, -z, x'
  42  'y, z, -x'
  43  '-x, -z, -y'
  44  'x, z, y'
  45  'y, -z, -x'
  46  '-y, z, x'
  47  'x, -z, y'
  48  '-x, z, -y'
  49  'x+1/2, y+1/2, z'
  50  '-x+1/2, -y+1/2, -z'
  51  '-y+1/2, x+1/2, z'
  52  'y+1/2, -x+1/2, -z'
  53  '-x+1/2, -y+1/2, z'
  54  'x+1/2, y+1/2, -z'
  55  'y+1/2, -x+1/2, z'
  56  '-y+1/2, x+1/2, -z'
  57  'x+1/2, -y+1/2, -z'
  58  '-x+1/2, y+1/2, z'
  59  '-y+1/2, -x+1/2, -z'
  60  'y+1/2, x+1/2, z'
  61  '-x+1/2, y+1/2, -z'
  62  'x+1/2, -y+1/2, z'
  63  'y+1/2, x+1/2, -z'
  64  '-y+1/2, -x+1/2, z'
  65  'z+1/2, x+1/2, y'
  66  '-z+1/2, -x+1/2, -y'
  67  'z+1/2, -y+1/2, x'
  68  '-z+1/2, y+1/2, -x'
  69  'z+1/2, -x+1/2, -y'
  70  '-z+1/2, x+1/2, y'
  71  'z+1/2, y+1/2, -x'
  72  '-z+1/2, -y+1/2, x'
  73  '-z+1/2, x+1/2, -y'
  74  'z+1/2, -x+1/2, y'
  75  '-z+1/2, -y+1/2, -x'
  76  'z+1/2, y+1/2, x'
  77  '-z+1/2, -x+1/2, y'
  78  'z+1/2, x+1/2, -y'
  79  '-z+1/2, y+1/2, x'
  80  'z+1/2, -y+1/2, -x'
  81  'y+1/2, z+1/2, x'
  82  '-y+1/2, -z+1/2, -x'
  83  'x+1/2, z+1/2, -y'
  84  '-x+1/2, -z+1/2, y'
  85  '-y+1/2, z+1/2, -x'
  86  'y+1/2, -z+1/2, x'
  87  '-x+1/2, z+1/2, y'
  88  'x+1/2, -z+1/2, -y'
  89  '-y+1/2, -z+1/2, x'
  90  'y+1/2, z+1/2, -x'
  91  '-x+1/2, -z+1/2, -y'
  92  'x+1/2, z+1/2, y'
  93  'y+1/2, -z+1/2, -x'
  94  '-y+1/2, z+1/2, x'
  95  'x+1/2, -z+1/2, y'
  96  '-x+1/2, z+1/2, -y'
  97  'x+1/2, y, z+1/2'
  98  '-x+1/2, -y, -z+1/2'
  99  '-y+1/2, x, z+1/2'
  100  'y+1/2, -x, -z+1/2'
  101  '-x+1/2, -y, z+1/2'
  102  'x+1/2, y, -z+1/2'
  103  'y+1/2, -x, z+1/2'
  104  '-y+1/2, x, -z+1/2'
  105  'x+1/2, -y, -z+1/2'
  106  '-x+1/2, y, z+1/2'
  107  '-y+1/2, -x, -z+1/2'
  108  'y+1/2, x, z+1/2'
  109  '-x+1/2, y, -z+1/2'
  110  'x+1/2, -y, z+1/2'
  111  'y+1/2, x, -z+1/2'
  112  '-y+1/2, -x, z+1/2'
  113  'z+1/2, x, y+1/2'
  114  '-z+1/2, -x, -y+1/2'
  115  'z+1/2, -y, x+1/2'
  116  '-z+1/2, y, -x+1/2'
  117  'z+1/2, -x, -y+1/2'
  118  '-z+1/2, x, y+1/2'
  119  'z+1/2, y, -x+1/2'
  120  '-z+1/2, -y, x+1/2'
  121  '-z+1/2, x, -y+1/2'
  122  'z+1/2, -x, y+1/2'
  123  '-z+1/2, -y, -x+1/2'
  124  'z+1/2, y, x+1/2'
  125  '-z+1/2, -x, y+1/2'
  126  'z+1/2, x, -y+1/2'
  127  '-z+1/2, y, x+1/2'
  128  'z+1/2, -y, -x+1/2'
  129  'y+1/2, z, x+1/2'
  130  '-y+1/2, -z, -x+1/2'
  131  'x+1/2, z, -y+1/2'
  132  '-x+1/2, -z, y+1/2'
  133  '-y+1/2, z, -x+1/2'
  134  'y+1/2, -z, x+1/2'
  135  '-x+1/2, z, y+1/2'
  136  'x+1/2, -z, -y+1/2'
  137  '-y+1/2, -z, x+1/2'
  138  'y+1/2, z, -x+1/2'
  139  '-x+1/2, -z, -y+1/2'
  140  'x+1/2, z, y+1/2'
  141  'y+1/2, -z, -x+1/2'
  142  '-y+1/2, z, x+1/2'
  143  'x+1/2, -z, y+1/2'
  144  '-x+1/2, z, -y+1/2'
  145  'x, y+1/2, z+1/2'
  146  '-x, -y+1/2, -z+1/2'
  147  '-y, x+1/2, z+1/2'
  148  'y, -x+1/2, -z+1/2'
  149  '-x, -y+1/2, z+1/2'
  150  'x, y+1/2, -z+1/2'
  151  'y, -x+1/2, z+1/2'
  152  '-y, x+1/2, -z+1/2'
  153  'x, -y+1/2, -z+1/2'
  154  '-x, y+1/2, z+1/2'
  155  '-y, -x+1/2, -z+1/2'
  156  'y, x+1/2, z+1/2'
  157  '-x, y+1/2, -z+1/2'
  158  'x, -y+1/2, z+1/2'
  159  'y, x+1/2, -z+1/2'
  160  '-y, -x+1/2, z+1/2'
  161  'z, x+1/2, y+1/2'
  162  '-z, -x+1/2, -y+1/2'
  163  'z, -y+1/2, x+1/2'
  164  '-z, y+1/2, -x+1/2'
  165  'z, -x+1/2, -y+1/2'
  166  '-z, x+1/2, y+1/2'
  167  'z, y+1/2, -x+1/2'
  168  '-z, -y+1/2, x+1/2'
  169  '-z, x+1/2, -y+1/2'
  170  'z, -x+1/2, y+1/2'
  171  '-z, -y+1/2, -x+1/2'
  172  'z, y+1/2, x+1/2'
  173  '-z, -x+1/2, y+1/2'
  174  'z, x+1/2, -y+1/2'
  175  '-z, y+1/2, x+1/2'
  176  'z, -y+1/2, -x+1/2'
  177  'y, z+1/2, x+1/2'
  178  '-y, -z+1/2, -x+1/2'
  179  'x, z+1/2, -y+1/2'
  180  '-x, -z+1/2, y+1/2'
  181  '-y, z+1/2, -x+1/2'
  182  'y, -z+1/2, x+1/2'
  183  '-x, z+1/2, y+1/2'
  184  'x, -z+1/2, -y+1/2'
  185  '-y, -z+1/2, x+1/2'
  186  'y, z+1/2, -x+1/2'
  187  '-x, -z+1/2, -y+1/2'
  188  'x, z+1/2, y+1/2'
  189  'y, -z+1/2, -x+1/2'
  190  '-y, z+1/2, x+1/2'
  191  'x, -z+1/2, y+1/2'
  192  '-x, z+1/2, -y+1/2'
loop_
 _atom_site_type_symbol
 _atom_site_label
 _atom_site_symmetry_multiplicity
 _atom_site_fract_x
 _atom_site_fract_y
 _atom_site_fract_z
 _atom_site_occupancy
  Ba  Ba0  24  0.00000000  0.25000000  0.25000000  1.0
  Fe  Fe1  24  0.00000000  0.00000000  0.34532005  1.0
  O  O2  32  0.11049974  0.11049974  0.38950026  1.0
  O  O3  32  0.13149319  0.13149319  0.13149319  1.0
  O  O4  4  0.00000000  0.00000000  0.00000000  1.0
  O  O5  4  0.00000000  0.00000000  0.50000000  1.0
# generated using pymatgen
data_BaFeO3
_symmetry_space_group_name_H-M   P6_422
_cell_length_a   7.50992853
_cell_length_b   7.50992853
_cell_length_c   11.08743066
_cell_angle_alpha   90.00000000
_cell_angle_beta   90.00000000
_cell_angle_gamma   120.00000000
_symmetry_Int_Tables_number   181
_chemical_formula_structural   BaFeO3
_chemical_formula_sum   'ID_7'
_cell_volume   541.54326145
_cell_formula_units_Z   6
loop_
 _symmetry_equiv_pos_site_id
 _symmetry_equiv_pos_as_xyz
  1  'x, y, z'
  2  'x-y, x, z+2/3'
  3  '-y, x-y, z+1/3'
  4  '-x, -y, z'
  5  '-x+y, -x, z+2/3'
  6  'y, -x+y, z+1/3'
  7  '-y, -x, -z+1/3'
  8  '-x, -x+y, -z+2/3'
  9  '-x+y, y, -z'
  10  'y, x, -z+1/3'
  11  'x, x-y, -z+2/3'
  12  'x-y, -y, -z'
loop_
 _atom_site_type_symbol
 _atom_site_label
 _atom_site_symmetry_multiplicity
 _atom_site_fract_x
 _atom_site_fract_y
 _atom_site_fract_z
 _atom_site_occupancy
  Ba  Ba0  6  0.18341903  0.36683806  0.50000000  1.0
  Fe  Fe1  3  0.00000000  0.50000000  0.33333333  1.0
  Fe  Fe2  3  0.00000000  0.50000000  0.83333333  1.0
  O  O3  12  0.19866795  0.46306726  0.24311810  1.0
  O  O4  3  0.00000000  0.00000000  0.00000000  1.0
  O  O5  3  0.00000000  0.00000000  0.16666667  1.0
# generated using pymatgen
data_BaFeO3
_symmetry_space_group_name_H-M   Cm
_cell_length_a   10.50842060
_cell_length_b   15.01449418
_cell_length_c   9.86324024
_cell_angle_alpha   90.00000000
_cell_angle_beta   120.19106182
_cell_angle_gamma   90.00000000
_symmetry_Int_Tables_number   8
_chemical_formula_structural   BaFeO3
_chemical_formula_sum   'ID_8'
_cell_volume   1345.11383720
_cell_formula_units_Z   12
loop_
 _symmetry_equiv_pos_site_id
 _symmetry_equiv_pos_as_xyz
  1  'x, y, z'
  2  'x, -y, z'
  3  'x+1/2, y+1/2, z'
  4  'x+1/2, -y+1/2, z'
loop_
 _atom_site_type_symbol
 _atom_site_label
 _atom_site_symmetry_multiplicity
 _atom_site_fract_x
 _atom_site_fract_y
 _atom_site_fract_z
 _atom_site_occupancy
  Ba  Ba0  4  0.26294433  0.17529051  0.23580421  1.0
  Ba  Ba1  4  0.41741417  0.20930425  0.92981246  1.0
  Ba  Ba2  2  0.00628098  0.00000000  0.80833815  1.0
  Ba  Ba3  2  0.18265481  0.50000000  0.87836334  1.0
  Fe  Fe4  4  0.39165001  0.37231924  0.16739179  1.0
  Fe  Fe5  2  0.07701618  0.50000000  0.44482159  1.0
  Fe  Fe6  2  0.25789029  0.50000000  0.31746843  1.0
  Fe  Fe7  2  0.32663807  0.00000000  0.62210113  1.0
  Fe  Fe8  2  0.37032279  0.00000000  0.02118246  1.0
  O  O9  4  0.01162763  0.24938075  0.23773641  1.0
  O  O10  4  0.07137861  0.17126418  0.35061586  1.0
  O  O11  4  0.20159945  0.32567880  0.06769727  1.0
  O  O12  4  0.25883277  0.10214158  0.99171826  1.0
  O  O13  4  0.33944555  0.37423905  0.83804664  1.0
  O  O14  4  0.41737158  0.05298400  0.49700284  1.0
  O  O15  4  0.45589605  0.38887475  0.00775545  1.0
  O  O16  2  0.03801652  0.50000000  0.22596235  1.0
  O  O17  2  0.28496423  0.50000000  0.52564525  1.0
  O  O18  2  0.35987680  0.50000000  0.19924916  1.0
  O  O19  2  0.40501640  0.00000000  0.83876962  1.0
# generated using pymatgen
data_BaFeO3
_symmetry_space_group_name_H-M   C222_1
_cell_length_a   9.98124195
_cell_length_b   11.89753858
_cell_length_c   10.50264403
_cell_angle_alpha   90.00000000
_cell_angle_beta   90.00000000
_cell_angle_gamma   90.00000000
_symmetry_Int_Tables_number   20
_chemical_formula_structural   BaFeO3
_chemical_formula_sum   'ID_9'
_cell_volume   1247.21220203
_cell_formula_units_Z   12
loop_
 _symmetry_equiv_pos_site_id
 _symmetry_equiv_pos_as_xyz
  1  'x, y, z'
  2  '-x, -y, z+1/2'
  3  'x, -y, -z'
  4  '-x, y, -z+1/2'
  5  'x+1/2, y+1/2, z'
  6  '-x+1/2, -y+1/2, z+1/2'
  7  'x+1/2, -y+1/2, -z'
  8  '-x+1/2, y+1/2, -z+1/2'
loop_
 _atom_site_type_symbol
 _atom_site_label
 _atom_site_symmetry_multiplicity
 _atom_site_fract_x
 _atom_site_fract_y
 _atom_site_fract_z
 _atom_site_occupancy
  Ba  Ba0  8  0.13977353  0.40599724  0.61517104  1.0
  Ba  Ba1  4  0.00000000  0.01117368  0.25000000  1.0
  Fe  Fe2  8  0.16410932  0.23105792  0.85093360  1.0
  Fe  Fe3  4  0.23434539  0.50000000  0.00000000  1.0
  O  O4  8  0.21800988  0.09190107  0.89238534  1.0
  O  O5  8  0.23632830  0.37263591  0.84748086  1.0
  O  O6  4  0.00000000  0.23311315  0.75000000  1.0
  O  O7  4  0.00000000  0.30266741  0.25000000  1.0
  O  O8  4  0.00000000  0.41083047  0.25000000  1.0
  O  O9  4  0.05130119  0.50000000  0.00000000  1.0
  O  O10  4  0.08554597  0.00000000  0.50000000  1.0
